! ----  This file was generated with Archsim v.4.0.2.38

  Version,8.8;

  RunPeriod,
    Archsim,                 !- Name
    1,                       !- Begin Month
    1,                       !- Begin Day of Month
    12,                      !- End Month
    31,                      !- End Day of Month
    UseWeatherFile,          !- Day of Week for Start Day
    No,                      !- Use Weather File Holidays and Special Days
    No,                      !- Use Weather File Daylight Saving Period
    Yes,                     !- Apply Weekend Holiday Rule
    Yes,                     !- Use Weather File Rain Indicators
    Yes,                     !- Use Weather File Snow Indicators
    1;                       !- Number of Times Runperiod to be Repeated

  RunPeriodControl:DaylightSavingTime,
    Last Sunday in March,    !- Start Date
    Last Sunday in October;  !- End Date

  Site:GroundTemperature:BuildingSurface,14,14,14,14,14,14,14,14,14,14,14,14;

  Site:GroundReflectance,0.2,0.2,0.2,0.2,0.2,0.2,0.2,0.2,0.2,0.2,0.2,0.2;

  Site:GroundReflectance:SnowModifier,
    1.0,                     !- Ground Reflected Solar Modifier
    1.0;                     !- Daylighting Ground Reflected Solar Modifier

  SimulationControl,
    Yes,                     !- Do Zone Sizing Calculation
    Yes,                     !- Do System Sizing Calculation
    Yes,                     !- Do Plant Sizing Calculation
    No,                      !- Run Simulation for Sizing Periods
    Yes;                     !- Run Simulation for Weather File Run Periods

  ConvergenceLimits,
    1,                       !- Minimum System Timestep {minutes}
    50;                      !- Maximum HVAC Iterations

  ScheduleTypeLimits,
    Any Number;              !- Name

  ScheduleTypeLimits,
    Fraction,                !- Name
    0.0,                     !- Lower Limit Value
    1.0,                     !- Upper Limit Value
    CONTINUOUS;              !- Numeric Type

  ScheduleTypeLimits,
    Temperature,             !- Name
    -60,                     !- Lower Limit Value
    200,                     !- Upper Limit Value
    CONTINUOUS;              !- Numeric Type

  ScheduleTypeLimits,
    Control Type,            !- Name
    0,                       !- Lower Limit Value
    4,                       !- Upper Limit Value
    DISCRETE;                !- Numeric Type

  ScheduleTypeLimits,
    On/Off,                  !- Name
    0,                       !- Lower Limit Value
    1,                       !- Upper Limit Value
    DISCRETE;                !- Numeric Type

  Schedule:Constant,On,On/Off,1;

  Schedule:Constant,Off,On/Off,0;

  GlobalGeometryRules,
    LowerLeftCorner,         !- Starting Vertex Position
    CounterClockWise,        !- Vertex Entry Direction
    Relative;                !- Coordinate System

! -------------------------ERL SENSORS--------------------------

  EnergyManagementSystem:Sensor,
    OutdoorTemp,             !- Name
    Environment,             !- Output:Variable or Output:Meter Index Key Name
    Site Outdoor Air Drybulb Temperature;  !- Output:Variable or Output:Meter Name

  EnergyManagementSystem:Sensor,
    OutdoorRelHumid,         !- Name
    Environment,             !- Output:Variable or Output:Meter Index Key Name
    Site Outdoor Air Relative Humidity;  !- Output:Variable or Output:Meter Name

  Output:EnergyManagementSystem,
    Verbose,                 !- Actuator Availability Dictionary Reporting
    Verbose,                 !- Internal Variable Availability Dictionary Reporting
    Verbose;                 !- EMS Runtime Language Debug Output Level

  SizingPeriod:WeatherFileConditionType,
    Extreme Summer Weather Period for Design,  !- Name
    SummerExtreme,           !- Period Selection
    SummerDesignDay,         !- Day of Week for Start Day
    No,                      !- Use Weather File Daylight Saving Period
    No;                      !- Use Weather File Rain and Snow Indicators

  SizingPeriod:WeatherFileConditionType,
    Extreme Winter Weather Period for Design,  !- Name
    WinterExtreme,           !- Period Selection
    WinterDesignDay,         !- Day of Week for Start Day
    No,                      !- Use Weather File Daylight Saving Period
    No;                      !- Use Weather File Rain and Snow Indicators

  Sizing:Parameters,
    1.2,                     !- Heating Sizing Factor
    1.2;                     !- Cooling Sizing Factor

!-   ===========  ALL OBJECTS IN CLASS: HVACTEMPLATE:SYSTEM:VAV ===========

  HVACTemplate:System:VAV,
    VAV Sys 1,               !- Name
    AllOn,                   !- System Availability Schedule Name
    autosize,                !- Supply Fan Maximum Flow Rate {m3/s}
    autosize,                !- Supply Fan Minimum Flow Rate {m3/s}
    0.7,                     !- Supply Fan Total Efficiency
    600,                     !- Supply Fan Delta Pressure {Pa}
    0.9,                     !- Supply Fan Motor Efficiency
    1,                       !- Supply Fan Motor in Air Stream Fraction
    ChilledWater,            !- Cooling Coil Type
    ,                        !- Cooling Coil Availability Schedule Name
    ,                        !- Cooling Coil Setpoint Schedule Name
    12.8,                    !- Cooling Coil Design Setpoint {C}
    HotWater,                !- Heating Coil Type
    ,                        !- Heating Coil Availability Schedule Name
    ,                        !- Heating Coil Setpoint Schedule Name
    10,                      !- Heating Coil Design Setpoint {C}
    0.8,                     !- Gas Heating Coil Efficiency
    0.0,                     !- Gas Heating Coil Parasitic Electric Load {W}
    None,                    !- Preheat Coil Type
    ,                        !- Preheat Coil Availability Schedule Name
    ,                        !- Preheat Coil Setpoint Schedule Name
    ,                        !- Preheat Coil Design Setpoint {C}
    0.8,                     !- Gas Preheat Coil Efficiency
    0.0,                     !- Gas Preheat Coil Parasitic Electric Load {W}
    autosize,                !- Maximum Outdoor Air Flow Rate {m3/s}
    autosize,                !- Minimum Outdoor Air Flow Rate {m3/s}
    FixedMinimum,            !- Minimum Outdoor Air Control Type
    ,                        !- Minimum Outdoor Air Schedule Name
    NoEconomizer,            !- Economizer Type
    NoLockout,               !- Economizer Lockout
    19,                      !- Economizer Upper Temperature Limit {C}
    4,                       !- Economizer Lower Temperature Limit {C}
    ,                        !- Economizer Upper Enthalpy Limit {J/kg}
    ,                        !- Economizer Maximum Limit Dewpoint Temperature {C}
    ,                        !- Supply Plenum Name
    ,                        !- Return Plenum Name
    DrawThrough,             !- Supply Fan Placement
    InletVaneDampers,        !- Supply Fan Part-Load Power Coefficients
    CycleOnAnyZoneFansOnly,  !- Night Cycle Control
    ,                        !- Night Cycle Control Zone Name
    None,                    !- Heat Recovery Type
    0.7,                     !- Sensible Heat Recovery Effectiveness
    0.65,                    !- Latent Heat Recovery Effectiveness
    None,                    !- Cooling Coil Setpoint Reset Type
    None,                    !- Heating Coil Setpoint Reset Type
    None,                    !- Dehumidification Control Type
    ,                        !- Dehumidification Control Zone Name
    80,                      !- Dehumidification Setpoint {percent}
    None,                    !- Humidifier Type
    ,                        !- Humidifier Availability Schedule Name
    0.000001,                !- Humidifier Rated Capacity {m3/s}
    2690.0,                  !- Humidifier Rated Electric Power {W}
    ,                        !- Humidifier Control Zone Name
    30,                      !- Humidifier Setpoint {percent}
    NonCoincident,           !- Sizing Option
    ,                        !- Return Fan
    ,                        !- Return Fan Total Efficiency
    ,                        !- Return Fan Delta Pressure {Pa}
    ,                        !- Return Fan Motor Efficiency
    ,                        !- Return Fan Motor in Air Stream Fraction
    ;                        !- Return Fan Part-Load Power Coefficients

!-   ===========  ALL OBJECTS IN CLASS: HVACTEMPLATE:PLANT:CHILLEDWATERLOOP ===========

  HVACTemplate:Plant:ChilledWaterLoop,
    Chilled Water Loop,      !- Name
    ,                        !- Pump Schedule Name
    INTERMITTENT,            !- Pump Control Type
    Default,                 !- Chiller Plant Operation Scheme Type
    ,                        !- Chiller Plant Equipment Operation Schemes Name
    ,                        !- Chilled Water Setpoint Schedule Name
    7.22,                    !- Chilled Water Design Setpoint {C}
    ConstantPrimaryNoSecondary,  !- Chilled Water Pump Configuration
    179352,                  !- Primary Chilled Water Pump Rated Head {Pa}
    179352,                  !- Secondary Chilled Water Pump Rated Head {Pa}
    Default,                 !- Condenser Plant Operation Scheme Type
    ,                        !- Condenser Equipment Operation Schemes Name
    ,                        !- Condenser Water Temperature Control Type
    ,                        !- Condenser Water Setpoint Schedule Name
    29.4,                    !- Condenser Water Design Setpoint {C}
    179352,                  !- Condenser Water Pump Rated Head {Pa}
    None,                    !- Chilled Water Setpoint Reset Type
    12.2,                    !- Chilled Water Setpoint at Outdoor Dry-Bulb Low {C}
    15.6,                    !- Chilled Water Reset Outdoor Dry-Bulb Low {C}
    6.7,                     !- Chilled Water Setpoint at Outdoor Dry-Bulb High {C}
    26.7,                    !- Chilled Water Reset Outdoor Dry-Bulb High {C}
    ,                        !- Chilled Water Primary Pump Type
    ,                        !- Chilled Water Secondary Pump Type
    ,                        !- Condenser Water Pump Type
    ,                        !- Chilled Water Supply Side Bypass Pipe
    ,                        !- Chilled Water Demand Side Bypass Pipe
    ,                        !- Condenser Water Supply Side Bypass Pipe
    ,                        !- Condenser Water Demand Side Bypass Pipe
    ,                        !- Fluid Type
    ,                        !- Loop Design Delta Temperature {deltaC}
    7.22;                    !- Minimum Outdoor Dry Bulb Temperature {C}

!-   ===========  ALL OBJECTS IN CLASS: HVACTEMPLATE:PLANT:CHILLER ===========

  HVACTemplate:Plant:Chiller,
    Main Chiller,            !- Name
    ElectricReciprocatingChiller,  !- Chiller Type
    autosize,                !- Capacity {W}
    4,                       !- Nominal COP {W/W}
    WaterCooled,             !- Condenser Type
    1,                       !- Priority
    ;                        !- Sizing Factor

!-   ===========  ALL OBJECTS IN CLASS: HVACTEMPLATE:PLANT:TOWER ===========

  HVACTemplate:Plant:Tower,
    Main Tower,              !- Name
    SingleSpeed,             !- Tower Type
    autosize,                !- High Speed Nominal Capacity {W}
    autosize,                !- High Speed Fan Power {W}
    autosize,                !- Low Speed Nominal Capacity {W}
    autosize,                !- Low Speed Fan Power {W}
    autosize,                !- Free Convection Capacity {W}
    1,                       !- Priority
    ;                        !- Sizing Factor

!-   ===========  ALL OBJECTS IN CLASS: HVACTEMPLATE:PLANT:HOTWATERLOOP ===========

  HVACTemplate:Plant:HotWaterLoop,
    Hot Water Loop,          !- Name
    ,                        !- Pump Schedule Name
    INTERMITTENT,            !- Pump Control Type
    Default,                 !- Hot Water Plant Operation Scheme Type
    ,                        !- Hot Water Plant Equipment Operation Schemes Name
    ,                        !- Hot Water Setpoint Schedule Name
    82,                      !- Hot Water Design Setpoint {C}
    ConstantFlow,            !- Hot Water Pump Configuration
    179352,                  !- Hot Water Pump Rated Head {Pa}
    OutdoorAirTemperatureReset,  !- Hot Water Setpoint Reset Type
    82.2,                    !- Hot Water Setpoint at Outdoor Dry-Bulb Low {C}
    -6.7,                    !- Hot Water Reset Outdoor Dry-Bulb Low {C}
    65.6,                    !- Hot Water Setpoint at Outdoor Dry-Bulb High {C}
    10;                      !- Hot Water Reset Outdoor Dry-Bulb High {C}

!-   ===========  ALL OBJECTS IN CLASS: HVACTEMPLATE:PLANT:BOILER ===========

  HVACTemplate:Plant:Boiler,
    Main Boiler,             !- Name
    HotWaterBoiler,          !- Boiler Type
    autosize,                !- Capacity {W}
    0.9,                     !- Efficiency
    NaturalGas,              !- Fuel Type
    1,                       !- Priority
    ;                        !- Sizing Factor

  ShadowCalculation,
    AverageOverDaysInFrequency,  !- Calculation Method
    20,                      !- Calculation Frequency
    15000,                   !- Maximum Figures in Shadow Overlap Calculations
    SutherlandHodgman,       !- Polygon Clipping Algorithm
    SimpleSkyDiffuseModeling;!- Sky Diffuse Modeling Algorithm

  Building,
    Building,                !- Name
    0,                       !- North Axis {deg}
    Suburbs,                 !- Terrain
    .04,                     !- Loads Convergence Tolerance Value
    .4,                      !- Temperature Convergence Tolerance Value {deltaC}
    FullExterior,            !- Solar Distribution
    25,                      !- Maximum Number of Warmup Days
    ;                        !- Minimum Number of Warmup Days

  HeatBalanceAlgorithm,ConductionTransferFunction,200,0.1,1000;

  Timestep,4;

  SurfaceConvectionAlgorithm:Inside,TARP;

  SurfaceConvectionAlgorithm:Outside,DOE-2;

! ------------ CONSTRUCTIONS
! 115mmSandLimeBrick Type: Partition

  Construction,
    115mmSandLimeBrick,      !- Name
    Plaster_0.005_115mmSandLimeBrick,  !- Outside Layer
    Sand-Lime Brick_0.08_115mmSandLimeBrick,  !- Layer 2
    Plaster_0.08_115mmSandLimeBrick;  !- Layer 3

  Construction,
    115mmSandLimeBrick_FLIPPED,  !- Name
    Plaster_0.08_115mmSandLimeBrick,  !- Outside Layer
    Sand-Lime Brick_0.08_115mmSandLimeBrick,  !- Layer 2
    Plaster_0.005_115mmSandLimeBrick;  !- Layer 3

! Materials
!- Material: Plaster Type: Screed

  Material,
    Plaster_0.005_115mmSandLimeBrick,  !- Name
    Rough,                   !- Roughness
    0.005,                   !- Thickness {m}
    1,                       !- Conductivity {W/m-K}
    2000,                    !- Density {kg/m3}
    1130,                    !- Specific Heat {J/kg-K}
    0.9,                     !- Thermal Absorptance
    0.6,                     !- Solar Absorptance
    0.6;                     !- Visible Absorptance

!- Material: Sand-Lime Brick Type: Masonry

  Material,
    Sand-Lime Brick_0.08_115mmSandLimeBrick,  !- Name
    Rough,                   !- Roughness
    0.08,                    !- Thickness {m}
    0.56,                    !- Conductivity {W/m-K}
    1200,                    !- Density {kg/m3}
    1000,                    !- Specific Heat {J/kg-K}
    0.9,                     !- Thermal Absorptance
    0.6,                     !- Solar Absorptance
    0.6;                     !- Visible Absorptance

!- Material: Plaster Type: Screed

  Material,
    Plaster_0.08_115mmSandLimeBrick,  !- Name
    Rough,                   !- Roughness
    0.08,                    !- Thickness {m}
    1,                       !- Conductivity {W/m-K}
    2000,                    !- Density {kg/m3}
    1130,                    !- Specific Heat {J/kg-K}
    0.9,                     !- Thermal Absorptance
    0.6,                     !- Solar Absorptance
    0.6;                     !- Visible Absorptance

! U0-5 Type: Facade

  Construction,
    U0-5,                    !- Name
    XPS Board_0.01_U0-5,     !- Outside Layer
    General Concrete_0.2_U0-5;  !- Layer 2

  Construction,
    U0-5_FLIPPED,            !- Name
    General Concrete_0.2_U0-5,  !- Outside Layer
    XPS Board_0.01_U0-5;     !- Layer 2

! Materials
!- Material: XPS Board Type: Insulation

  Material,
    XPS Board_0.01_U0-5,     !- Name
    Rough,                   !- Roughness
    0.01,                    !- Thickness {m}
    0.034,                   !- Conductivity {W/m-K}
    35,                      !- Density {kg/m3}
    1400,                    !- Specific Heat {J/kg-K}
    0.9,                     !- Thermal Absorptance
    0.6,                     !- Solar Absorptance
    0.6;                     !- Visible Absorptance

!- Material: General Concrete Type: Concrete

  Material,
    General Concrete_0.2_U0-5,  !- Name
    Rough,                   !- Roughness
    0.2,                     !- Thickness {m}
    2,                       !- Conductivity {W/m-K}
    2400,                    !- Density {kg/m3}
    950,                     !- Specific Heat {J/kg-K}
    0.9,                     !- Thermal Absorptance
    0.7,                     !- Solar Absorptance
    0.7;                     !- Visible Absorptance

! U0-4 Type: Facade

  Construction,
    U0-4,                    !- Name
    XPS Board_0.06_U0-4,     !- Outside Layer
    General Concrete_0.2_U0-4;  !- Layer 2

  Construction,
    U0-4_FLIPPED,            !- Name
    General Concrete_0.2_U0-4,  !- Outside Layer
    XPS Board_0.06_U0-4;     !- Layer 2

! Materials
!- Material: XPS Board Type: Insulation

  Material,
    XPS Board_0.06_U0-4,     !- Name
    Rough,                   !- Roughness
    0.06,                    !- Thickness {m}
    0.034,                   !- Conductivity {W/m-K}
    35,                      !- Density {kg/m3}
    1400,                    !- Specific Heat {J/kg-K}
    0.9,                     !- Thermal Absorptance
    0.6,                     !- Solar Absorptance
    0.6;                     !- Visible Absorptance

!- Material: General Concrete Type: Concrete

  Material,
    General Concrete_0.2_U0-4,  !- Name
    Rough,                   !- Roughness
    0.2,                     !- Thickness {m}
    2,                       !- Conductivity {W/m-K}
    2400,                    !- Density {kg/m3}
    950,                     !- Specific Heat {J/kg-K}
    0.9,                     !- Thermal Absorptance
    0.7,                     !- Solar Absorptance
    0.7;                     !- Visible Absorptance

! ------------ GLAZING
! Double Type: Double

  Construction,
    Double,                  !- Name
    Generic Clear Glass 6mm_0.006_Double,  !- Outside Layer
    ARGON_0.0013_Double,     !- Layer 2
    Generic Clear Glass 6mm_0.006_Double;  !- Layer 3

  Construction,
    Double_FLIPPED,          !- Name
    Generic Clear Glass 6mm_0.006_Double,  !- Outside Layer
    ARGON_0.0013_Double,     !- Layer 2
    Generic Clear Glass 6mm_0.006_Double;  !- Layer 3

! Materials

  WindowMaterial:Glazing,
    Generic Clear Glass 6mm_0.006_Double,  !- Name
    SpectralAverage,         !- Optical Data Type
    SpectralAverage,         !- Window Glass Spectral Data Set Name
    0.006,                   !- Thickness {m}
    0.68,                    !- Solar Transmittance at Normal Incidence
    0.09,                    !- Front Side Solar Reflectance at Normal Incidence
    0.1,                     !- Back Side Solar Reflectance at Normal Incidence
    0.81,                    !- Visible Transmittance at Normal Incidence
    0.11,                    !- Front Side Visible Reflectance at Normal Incidence
    0.12,                    !- Back Side Visible Reflectance at Normal Incidence
    0,                       !- Infrared Transmittance at Normal Incidence
    0.2,                     !- Front Side Infrared Hemispherical Emissivity
    0.2,                     !- Back Side Infrared Hemispherical Emissivity
    0.9,                     !- Conductivity {W/m-K}
    1;                       !- Dirt Correction Factor for Solar and Visible Transmittance

! Gas: ARGON GasType: ARGON

  WindowMaterial:Gas,
    ARGON_0.0013_Double,     !- Name
    ARGON,                   !- Gas Type
    0.0013;                  !- Thickness {m}

! ------------ SCHEDULES

  Schedule:Year,
    AllOn,                   !- Name
    Fraction,                !- Schedule Type Limits Name
    AllOn,                   !- Schedule:Week Name 1
    1,                       !- Start Month 1
    1,                       !- Start Day 1
    12,                      !- End Month 1
    31;                      !- End Day 1

  Schedule:Year,
    equipOffice,             !- Name
    Fraction,                !- Schedule Type Limits Name
    equipOffice,             !- Schedule:Week Name 1
    1,                       !- Start Month 1
    1,                       !- Start Day 1
    12,                      !- End Month 1
    31;                      !- End Day 1

  Schedule:Year,
    60HrWk,                  !- Name
    Fraction,                !- Schedule Type Limits Name
    60HrWk,                  !- Schedule:Week Name 1
    1,                       !- Start Month 1
    1,                       !- Start Day 1
    12,                      !- End Month 1
    31;                      !- End Day 1

  Schedule:Week:Daily,
    AllOn,                   !- Name
    AllOn,                   !- Sunday Schedule:Day Name
    AllOn,                   !- Monday Schedule:Day Name
    AllOn,                   !- Tuesday Schedule:Day Name
    AllOn,                   !- Wednesday Schedule:Day Name
    AllOn,                   !- Thursday Schedule:Day Name
    AllOn,                   !- Friday Schedule:Day Name
    AllOn,                   !- Saturday Schedule:Day Name
    AllOn,                   !- Holiday Schedule:Day Name
    AllOn,                   !- SummerDesignDay Schedule:Day Name
    AllOn,                   !- WinterDesignDay Schedule:Day Name
    AllOn,                   !- CustomDay1 Schedule:Day Name
    AllOn;                   !- CustomDay2 Schedule:Day Name

  Schedule:Week:Daily,
    equipOffice,             !- Name
    equipOfficeWeekEnd,      !- Sunday Schedule:Day Name
    equipOffice,             !- Monday Schedule:Day Name
    equipOffice,             !- Tuesday Schedule:Day Name
    equipOffice,             !- Wednesday Schedule:Day Name
    equipOffice,             !- Thursday Schedule:Day Name
    equipOffice,             !- Friday Schedule:Day Name
    equipOfficeWeekEnd,      !- Saturday Schedule:Day Name
    equipOfficeWeekEnd,      !- Holiday Schedule:Day Name
    equipOffice,             !- SummerDesignDay Schedule:Day Name
    equipOffice,             !- WinterDesignDay Schedule:Day Name
    equipOffice,             !- CustomDay1 Schedule:Day Name
    equipOffice;             !- CustomDay2 Schedule:Day Name

  Schedule:Week:Daily,
    60HrWk,                  !- Name
    60HrWkDay,               !- Sunday Schedule:Day Name
    60HrWkDay,               !- Monday Schedule:Day Name
    60HrWkDay,               !- Tuesday Schedule:Day Name
    60HrWkDay,               !- Wednesday Schedule:Day Name
    60HrWkDay,               !- Thursday Schedule:Day Name
    60HrWkDay,               !- Friday Schedule:Day Name
    60HrWkDay,               !- Saturday Schedule:Day Name
    60HrWkDay,               !- Holiday Schedule:Day Name
    60HrWkDay,               !- SummerDesignDay Schedule:Day Name
    60HrWkDay,               !- WinterDesignDay Schedule:Day Name
    60HrWkDay,               !- CustomDay1 Schedule:Day Name
    60HrWkDay;               !- CustomDay2 Schedule:Day Name

  Schedule:Day:Hourly,
    AllOn,                   !- Name
    Fraction,                !- Schedule Type Limits Name
    1,                       !- Hour 1
    1,                       !- Hour 2
    1,                       !- Hour 3
    1,                       !- Hour 4
    1,                       !- Hour 5
    1,                       !- Hour 6
    1,                       !- Hour 7
    1,                       !- Hour 8
    1,                       !- Hour 9
    1,                       !- Hour 10
    1,                       !- Hour 11
    1,                       !- Hour 12
    1,                       !- Hour 13
    1,                       !- Hour 14
    1,                       !- Hour 15
    1,                       !- Hour 16
    1,                       !- Hour 17
    1,                       !- Hour 18
    1,                       !- Hour 19
    1,                       !- Hour 20
    1,                       !- Hour 21
    1,                       !- Hour 22
    1,                       !- Hour 23
    1;                       !- Hour 24

  Schedule:Day:Hourly,
    equipOffice,             !- Name
    Fraction,                !- Schedule Type Limits Name
    0.1,                     !- Hour 1
    0.1,                     !- Hour 2
    0.1,                     !- Hour 3
    0.1,                     !- Hour 4
    0.1,                     !- Hour 5
    0.1,                     !- Hour 6
    0.1,                     !- Hour 7
    0.2,                     !- Hour 8
    0.4,                     !- Hour 9
    0.6,                     !- Hour 10
    0.8,                     !- Hour 11
    0.8,                     !- Hour 12
    0.4,                     !- Hour 13
    0.6,                     !- Hour 14
    0.8,                     !- Hour 15
    0.8,                     !- Hour 16
    0.4,                     !- Hour 17
    0.2,                     !- Hour 18
    0.1,                     !- Hour 19
    0.1,                     !- Hour 20
    0.1,                     !- Hour 21
    0.1,                     !- Hour 22
    0.1,                     !- Hour 23
    0.1;                     !- Hour 24

  Schedule:Day:Hourly,
    equipOfficeWeekEnd,      !- Name
    Fraction,                !- Schedule Type Limits Name
    0.1,                     !- Hour 1
    0.1,                     !- Hour 2
    0.1,                     !- Hour 3
    0.1,                     !- Hour 4
    0.1,                     !- Hour 5
    0.1,                     !- Hour 6
    0.1,                     !- Hour 7
    0.2,                     !- Hour 8
    0.4,                     !- Hour 9
    0.6,                     !- Hour 10
    0.8,                     !- Hour 11
    0.8,                     !- Hour 12
    0.4,                     !- Hour 13
    0.6,                     !- Hour 14
    0.8,                     !- Hour 15
    0.8,                     !- Hour 16
    0.4,                     !- Hour 17
    0.2,                     !- Hour 18
    0.1,                     !- Hour 19
    0.1,                     !- Hour 20
    0.1,                     !- Hour 21
    0.1,                     !- Hour 22
    0.1,                     !- Hour 23
    0.1;                     !- Hour 24

  Schedule:Day:Hourly,
    60HrWkDay,               !- Name
    Fraction,                !- Schedule Type Limits Name
    0.2,                     !- Hour 1
    0.2,                     !- Hour 2
    0.2,                     !- Hour 3
    0.2,                     !- Hour 4
    0.2,                     !- Hour 5
    0.2,                     !- Hour 6
    0.2,                     !- Hour 7
    0.4,                     !- Hour 8
    0.8,                     !- Hour 9
    0.8,                     !- Hour 10
    1,                       !- Hour 11
    1,                       !- Hour 12
    0.8,                     !- Hour 13
    1,                       !- Hour 14
    1,                       !- Hour 15
    1,                       !- Hour 16
    0.8,                     !- Hour 17
    0.4,                     !- Hour 18
    0.2,                     !- Hour 19
    0.2,                     !- Hour 20
    0.2,                     !- Hour 21
    0.2,                     !- Hour 22
    0.2,                     !- Hour 23
    0.2;                     !- Hour 24

!------------------------------------------------ ZONE ----------------------------------------------------

  Zone,
    0Perim,                  !- Name
    0,                       !- Direction of Relative North {deg}
    0,                       !- X Origin {m}
    0,                       !- Y Origin {m}
    0,                       !- Z Origin {m}
    1,                       !- Type
    1.0,                     !- Multiplier
    ,                        !- Ceiling Height {m}
    130.164129293807,        !- Volume {m3}
    27.772137662643,         !- Floor Area {m2}
    TARP,                    !- Zone Inside Convection Algorithm
    DOE-2;                   !- Zone Outside Convection Algorithm

! ------------------------ PEOPLE

  People,
    People 0Perim,           !- Name
    0Perim,                  !- Zone or ZoneList Name
    AllOn,                   !- Number of People Schedule Name
    People/Area,             !- Number of People Calculation Method
    ,                        !- Number of People
    0.25,                    !- People per Zone Floor Area {person/m2}
    ,                        !- Zone Floor Area per Person {m2/person}
    0.3,                     !- Fraction Radiant
    AUTOCALCULATE,           !- Sensible Heat Fraction
    0PerimPeopleActivity,    !- Activity Level Schedule Name
    0.0000000382,            !- Carbon Dioxide Generation Rate {m3/s-W}
    No,                      !- Enable ASHRAE 55 Comfort Warnings
    ZoneAveraged,            !- Mean Radiant Temperature Calculation Type
    ,                        !- Surface Name/Angle Factor List Name
    0PerimWorkEfficiency,    !- Work Efficiency Schedule Name
    DynamicClothingModelASHRAE55,  !- Clothing Insulation Calculation Method
    ,                        !- Clothing Insulation Calculation Method Schedule Name