! ----  This file was generated with Archsim v.4.0.2.17

  Version,8.8;

  RunPeriod,
    ArchSim,                 !- Name
    1,                       !- Begin Month
    1,                       !- Begin Day of Month
    12,                      !- End Month
    31,                      !- End Day of Month
    UseWeatherFile,          !- Day of Week for Start Day
    No,                      !- Use Weather File Holidays and Special Days
    No,                      !- Use Weather File Daylight Saving Period
    Yes,                     !- Apply Weekend Holiday Rule
    Yes,                     !- Use Weather File Rain Indicators
    Yes,                     !- Use Weather File Snow Indicators
    1;                       !- Number of Times Runperiod to be Repeated

  RunPeriodControl:DaylightSavingTime,
    Last Sunday in March,    !- Start Date
    Last Sunday in October;  !- End Date

  Site:GroundTemperature:BuildingSurface,14,14,14,14,14,14,14,14,14,14,14,14;

  Site:GroundReflectance,0.2,0.2,0.2,0.2,0.2,0.2,0.2,0.2,0.2,0.2,0.2,0.2;

  Site:GroundReflectance:SnowModifier,
    1.0,                     !- Ground Reflected Solar Modifier
    1.0;                     !- Daylighting Ground Reflected Solar Modifier

  SimulationControl,
    No,                      !- Do Zone Sizing Calculation
    No,                      !- Do System Sizing Calculation
    No,                      !- Do Plant Sizing Calculation
    No,                      !- Run Simulation for Sizing Periods
    Yes;                     !- Run Simulation for Weather File Run Periods

  ConvergenceLimits,
    1,                       !- Minimum System Timestep {minutes}
    50;                      !- Maximum HVAC Iterations

  ScheduleTypeLimits,
    Any Number;              !- Name

  ScheduleTypeLimits,
    Fraction,                !- Name
    0.0,                     !- Lower Limit Value
    1.0,                     !- Upper Limit Value
    CONTINUOUS;              !- Numeric Type

  ScheduleTypeLimits,
    Temperature,             !- Name
    -60,                     !- Lower Limit Value
    200,                     !- Upper Limit Value
    CONTINUOUS;              !- Numeric Type

  ScheduleTypeLimits,
    Control GasType,         !- Name
    0,                       !- Lower Limit Value
    4,                       !- Upper Limit Value
    DISCRETE;                !- Numeric Type

  ScheduleTypeLimits,
    On/Off,                  !- Name
    0,                       !- Lower Limit Value
    1,                       !- Upper Limit Value
    DISCRETE;                !- Numeric Type

  Schedule:Constant,On,On/Off,1;

  Schedule:Constant,Off,On/Off,0;

  GlobalGeometryRules,
    LowerLeftCorner,         !- Starting Vertex Position
    CounterClockWise,        !- Vertex Entry Direction
    Relative;                !- Coordinate System

! -------------------------ERL SENSORS--------------------------

  EnergyManagementSystem:Sensor,
    OutdoorTemp,             !- Name
    Environment,             !- Output:Variable or Output:Meter Index Key Name
    Site Outdoor Air Drybulb Temperature;  !- Output:Variable or Output:Meter Name

  EnergyManagementSystem:Sensor,
    OutdoorRelHumid,         !- Name
    Environment,             !- Output:Variable or Output:Meter Index Key Name
    Site Outdoor Air Relative Humidity;  !- Output:Variable or Output:Meter Name

  Output:EnergyManagementSystem,
    Verbose,                 !- Actuator Availability Dictionary Reporting
    Verbose,                 !- Internal Variable Availability Dictionary Reporting
    Verbose;                 !- EMS Runtime Language Debug Output Level

  ShadowCalculation,
    AverageOverDaysInFrequency,  !- Calculation Method
    60,                      !- Calculation Frequency
    15000,                   !- Maximum Figures in Shadow Overlap Calculations
    SutherlandHodgman,       !- Polygon Clipping Algorithm
    SimpleSkyDiffuseModeling;!- Sky Diffuse Modeling Algorithm

  Building,
    Building,                !- Name
    0,                       !- North Axis {deg}
    Suburbs,                 !- Terrain
    .04,                     !- Loads Convergence Tolerance Value
    .4,                      !- Temperature Convergence Tolerance Value {deltaC}
    MinimalShadowing,        !- Solar Distribution
    25,                      !- Maximum Number of Warmup Days
    ;                        !- Minimum Number of Warmup Days

  HeatBalanceAlgorithm,ConductionTransferFunction,200,0.1,1000;

  Timestep,4;

  SurfaceConvectionAlgorithm:Inside,TARP;

  SurfaceConvectionAlgorithm:Outside,DOE-2;

! ------------ CONSTRUCTIONS
! 115mmSandLimeBrick GasType: Partition

  Construction,
    115mmSandLimeBrick,      !- Name
    Plaster_0.005_115mmSandLimeBrick,  !- Outside Layer
    Sand-Lime Brick_0.08_115mmSandLimeBrick,  !- Layer 2
    Plaster_0.08_115mmSandLimeBrick;  !- Layer 3

  Construction,
    115mmSandLimeBrick_FLIPPED,  !- Name
    Plaster_0.08_115mmSandLimeBrick,  !- Outside Layer
    Sand-Lime Brick_0.08_115mmSandLimeBrick,  !- Layer 2
    Plaster_0.005_115mmSandLimeBrick;  !- Layer 3

! Materials
!- Material: Plaster GasType: Screed

  Material,
    Plaster_0.005_115mmSandLimeBrick,  !- Name
    Rough,                   !- Roughness
    0.005,                   !- Thickness {m}
    1,                       !- Conductivity {W/m-K}
    2000,                    !- Density {kg/m3}
    1130,                    !- Specific Heat {J/kg-K}
    0.9,                     !- Thermal Absorptance
    0.6,                     !- Solar Absorptance
    0.6;                     !- Visible Absorptance

!- Material: Sand-Lime Brick GasType: Masonry

  Material,
    Sand-Lime Brick_0.08_115mmSandLimeBrick,  !- Name
    Rough,                   !- Roughness
    0.08,                    !- Thickness {m}
    0.56,                    !- Conductivity {W/m-K}
    1200,                    !- Density {kg/m3}
    1000,                    !- Specific Heat {J/kg-K}
    0.9,                     !- Thermal Absorptance
    0.6,                     !- Solar Absorptance
    0.6;                     !- Visible Absorptance

!- Material: Plaster GasType: Screed

  Material,
    Plaster_0.08_115mmSandLimeBrick,  !- Name
    Rough,                   !- Roughness
    0.08,                    !- Thickness {m}
    1,                       !- Conductivity {W/m-K}
    2000,                    !- Density {kg/m3}
    1130,                    !- Specific Heat {J/kg-K}
    0.9,                     !- Thermal Absorptance
    0.6,                     !- Solar Absorptance
    0.6;                     !- Visible Absorptance

! U0-5 GasType: Facade

  Construction,
    U0-5,                    !- Name
    XPS Board_0.01_U0-5,     !- Outside Layer
    General Concrete_0.2_U0-5;  !- Layer 2

  Construction,
    U0-5_FLIPPED,            !- Name
    General Concrete_0.2_U0-5,  !- Outside Layer
    XPS Board_0.01_U0-5;     !- Layer 2

! Materials
!- Material: XPS Board GasType: Insulation

  Material,
    XPS Board_0.01_U0-5,     !- Name
    Rough,                   !- Roughness
    0.01,                    !- Thickness {m}
    0.034,                   !- Conductivity {W/m-K}
    35,                      !- Density {kg/m3}
    1400,                    !- Specific Heat {J/kg-K}
    0.9,                     !- Thermal Absorptance
    0.6,                     !- Solar Absorptance
    0.6;                     !- Visible Absorptance

!- Material: General Concrete GasType: Concrete

  Material,
    General Concrete_0.2_U0-5,  !- Name
    Rough,                   !- Roughness
    0.2,                     !- Thickness {m}
    2,                       !- Conductivity {W/m-K}
    2400,                    !- Density {kg/m3}
    950,                     !- Specific Heat {J/kg-K}
    0.9,                     !- Thermal Absorptance
    0.7,                     !- Solar Absorptance
    0.7;                     !- Visible Absorptance

! U0-4 GasType: Facade

  Construction,
    U0-4,                    !- Name
    XPS Board_0.06_U0-4,     !- Outside Layer
    General Concrete_0.2_U0-4;  !- Layer 2

  Construction,
    U0-4_FLIPPED,            !- Name
    General Concrete_0.2_U0-4,  !- Outside Layer
    XPS Board_0.06_U0-4;     !- Layer 2

! Materials
!- Material: XPS Board GasType: Insulation

  Material,
    XPS Board_0.06_U0-4,     !- Name
    Rough,                   !- Roughness
    0.06,                    !- Thickness {m}
    0.034,                   !- Conductivity {W/m-K}
    35,                      !- Density {kg/m3}
    1400,                    !- Specific Heat {J/kg-K}
    0.9,                     !- Thermal Absorptance
    0.6,                     !- Solar Absorptance
    0.6;                     !- Visible Absorptance

!- Material: General Concrete GasType: Concrete

  Material,
    General Concrete_0.2_U0-4,  !- Name
    Rough,                   !- Roughness
    0.2,                     !- Thickness {m}
    2,                       !- Conductivity {W/m-K}
    2400,                    !- Density {kg/m3}
    950,                     !- Specific Heat {J/kg-K}
    0.9,                     !- Thermal Absorptance
    0.7,                     !- Solar Absorptance
    0.7;                     !- Visible Absorptance

! ------------ GLAZING
! Single GasType: Single

  Construction,
    Single,                  !- Name
    Generic Clear Glass 6mm_0.006_Single;  !- Outside Layer

  Construction,
    Single_FLIPPED,          !- Name
    Generic Clear Glass 6mm_0.006_Single;  !- Outside Layer

! Materials

  WindowMaterial:Glazing,
    Generic Clear Glass 6mm_0.006_Single,  !- Name
    SpectralAverage,         !- Optical Data Type
    SpectralAverage,         !- Window Glass Spectral Data Set Name
    0.006,                   !- Thickness {m}
    0.68,                    !- Solar Transmittance at Normal Incidence
    0.09,                    !- Front Side Solar Reflectance at Normal Incidence
    0.1,                     !- Back Side Solar Reflectance at Normal Incidence
    0.81,                    !- Visible Transmittance at Normal Incidence
    0.11,                    !- Front Side Visible Reflectance at Normal Incidence
    0.12,                    !- Back Side Visible Reflectance at Normal Incidence
    0,                       !- Infrared Transmittance at Normal Incidence
    0.2,                     !- Front Side Infrared Hemispherical Emissivity
    0.2,                     !- Back Side Infrared Hemispherical Emissivity
    0.9,                     !- Conductivity {W/m-K}
    1;                       !- Dirt Correction Factor for Solar and Visible Transmittance

! ------------ SCHEDULES

  Schedule:Year,
    30HrWk,                  !- Name
    Fraction,                !- Schedule Type Limits Name
    30HrWk,                  !- Schedule:Week Name 1
    1,                       !- Start Month 1
    1,                       !- Start Day 1
    12,                      !- End Month 1
    31;                      !- End Day 1

  Schedule:Year,
    AllOn,                   !- Name
    Fraction,                !- Schedule Type Limits Name
    AllOn,                   !- Schedule:Week Name 1
    1,                       !- Start Month 1
    1,                       !- Start Day 1
    12,                      !- End Month 1
    31;                      !- End Day 1

  Schedule:Year,
    equipOffice,             !- Name
    Fraction,                !- Schedule Type Limits Name
    equipOffice,             !- Schedule:Week Name 1
    1,                       !- Start Month 1
    1,                       !- Start Day 1
    12,                      !- End Month 1
    31;                      !- End Day 1

  Schedule:Year,
    60HrWk,                  !- Name
    Fraction,                !- Schedule Type Limits Name
    60HrWk,                  !- Schedule:Week Name 1
    1,                       !- Start Month 1
    1,                       !- Start Day 1
    12,                      !- End Month 1
    31;                      !- End Day 1

  Schedule:Year,
    AllOff,                  !- Name
    Fraction,                !- Schedule Type Limits Name
    AllOff,                  !- Schedule:Week Name 1
    1,                       !- Start Month 1
    1,                       !- Start Day 1
    12,                      !- End Month 1
    31;                      !- End Day 1

  Schedule:Week:Daily,
    30HrWk,                  !- Name
    30HrWkDay,               !- Sunday Schedule:Day Name
    30HrWkDay,               !- Monday Schedule:Day Name
    30HrWkDay,               !- Tuesday Schedule:Day Name
    30HrWkDay,               !- Wednesday Schedule:Day Name
    30HrWkDay,               !- Thursday Schedule:Day Name
    30HrWkDay,               !- Friday Schedule:Day Name
    30HrWkDay,               !- Saturday Schedule:Day Name
    30HrWkDay,               !- Holiday Schedule:Day Name
    30HrWkDay,               !- SummerDesignDay Schedule:Day Name
    30HrWkDay,               !- WinterDesignDay Schedule:Day Name
    30HrWkDay,               !- CustomDay1 Schedule:Day Name
    30HrWkDay;               !- CustomDay2 Schedule:Day Name

  Schedule:Week:Daily,
    AllOn,                   !- Name
    AllOn,                   !- Sunday Schedule:Day Name
    AllOn,                   !- Monday Schedule:Day Name
    AllOn,                   !- Tuesday Schedule:Day Name
    AllOn,                   !- Wednesday Schedule:Day Name
    AllOn,                   !- Thursday Schedule:Day Name
    AllOn,                   !- Friday Schedule:Day Name
    AllOn,                   !- Saturday Schedule:Day Name
    AllOn,                   !- Holiday Schedule:Day Name
    AllOn,                   !- SummerDesignDay Schedule:Day Name
    AllOn,                   !- WinterDesignDay Schedule:Day Name
    AllOn,                   !- CustomDay1 Schedule:Day Name
    AllOn;                   !- CustomDay2 Schedule:Day Name

  Schedule:Week:Daily,
    equipOffice,             !- Name
    equipOfficeWeekEnd,      !- Sunday Schedule:Day Name
    equipOffice,             !- Monday Schedule:Day Name
    equipOffice,             !- Tuesday Schedule:Day Name
    equipOffice,             !- Wednesday Schedule:Day Name
    equipOffice,             !- Thursday Schedule:Day Name
    equipOffice,             !- Friday Schedule:Day Name
    equipOfficeWeekEnd,      !- Saturday Schedule:Day Name
    equipOfficeWeekEnd,      !- Holiday Schedule:Day Name
    equipOffice,             !- SummerDesignDay Schedule:Day Name
    equipOffice,             !- WinterDesignDay Schedule:Day Name
    equipOffice,             !- CustomDay1 Schedule:Day Name
    equipOffice;             !- CustomDay2 Schedule:Day Name

  Schedule:Week:Daily,
    60HrWk,                  !- Name
    60HrWkDay,               !- Sunday Schedule:Day Name
    60HrWkDay,               !- Monday Schedule:Day Name
    60HrWkDay,               !- Tuesday Schedule:Day Name
    60HrWkDay,               !- Wednesday Schedule:Day Name
    60HrWkDay,               !- Thursday Schedule:Day Name
    60HrWkDay,               !- Friday Schedule:Day Name
    60HrWkDay,               !- Saturday Schedule:Day Name
    60HrWkDay,               !- Holiday Schedule:Day Name
    60HrWkDay,               !- SummerDesignDay Schedule:Day Name
    60HrWkDay,               !- WinterDesignDay Schedule:Day Name
    60HrWkDay,               !- CustomDay1 Schedule:Day Name
    60HrWkDay;               !- CustomDay2 Schedule:Day Name

  Schedule:Week:Daily,
    AllOff,                  !- Name
    AllOff,                  !- Sunday Schedule:Day Name
    AllOff,                  !- Monday Schedule:Day Name
    AllOff,                  !- Tuesday Schedule:Day Name
    AllOff,                  !- Wednesday Schedule:Day Name
    AllOff,                  !- Thursday Schedule:Day Name
    AllOff,                  !- Friday Schedule:Day Name
    AllOff,                  !- Saturday Schedule:Day Name
    AllOff,                  !- Holiday Schedule:Day Name
    AllOff,                  !- SummerDesignDay Schedule:Day Name
    AllOff,                  !- WinterDesignDay Schedule:Day Name
    AllOff,                  !- CustomDay1 Schedule:Day Name
    AllOff;                  !- CustomDay2 Schedule:Day Name

  Schedule:Day:Hourly,
    30HrWkDay,               !- Name
    Fraction,                !- Schedule Type Limits Name
    0.1,                     !- Hour 1
    0.1,                     !- Hour 2
    0.1,                     !- Hour 3
    0.1,                     !- Hour 4
    0.1,                     !- Hour 5
    0.1,                     !- Hour 6
    0.1,                     !- Hour 7
    0.2,                     !- Hour 8
    0.4,                     !- Hour 9
    0.6,                     !- Hour 10
    0.8,                     !- Hour 11
    0.8,                     !- Hour 12
    0.4,                     !- Hour 13
    0.6,                     !- Hour 14
    0.8,                     !- Hour 15
    0.8,                     !- Hour 16
    0.4,                     !- Hour 17
    0.2,                     !- Hour 18
    0.1,                     !- Hour 19
    0.1,                     !- Hour 20
    0.1,                     !- Hour 21
    0.1,                     !- Hour 22
    0.1,                     !- Hour 23
    0.1;                     !- Hour 24

  Schedule:Day:Hourly,
    AllOn,                   !- Name
    Fraction,                !- Schedule Type Limits Name
    1,                       !- Hour 1
    1,                       !- Hour 2
    1,                       !- Hour 3
    1,                       !- Hour 4
    1,                       !- Hour 5
    1,                       !- Hour 6
    1,                       !- Hour 7
    1,                       !- Hour 8
    1,                       !- Hour 9
    1,                       !- Hour 10
    1,                       !- Hour 11
    1,                       !- Hour 12
    1,                       !- Hour 13
    1,                       !- Hour 14
    1,                       !- Hour 15
    1,                       !- Hour 16
    1,                       !- Hour 17
    1,                       !- Hour 18
    1,                       !- Hour 19
    1,                       !- Hour 20
    1,                       !- Hour 21
    1,                       !- Hour 22
    1,                       !- Hour 23
    1;                       !- Hour 24

  Schedule:Day:Hourly,
    equipOffice,             !- Name
    Fraction,                !- Schedule Type Limits Name
    0.1,                     !- Hour 1
    0.1,                     !- Hour 2
    0.1,                     !- Hour 3
    0.1,                     !- Hour 4
    0.1,                     !- Hour 5
    0.1,                     !- Hour 6
    0.1,                     !- Hour 7
    0.2,                     !- Hour 8
    0.4,                     !- Hour 9
    0.6,                     !- Hour 10
    0.8,                     !- Hour 11
    0.8,                     !- Hour 12
    0.4,                     !- Hour 13
    0.6,                     !- Hour 14
    0.8,                     !- Hour 15
    0.8,                     !- Hour 16
    0.4,                     !- Hour 17
    0.2,                     !- Hour 18
    0.1,                     !- Hour 19
    0.1,                     !- Hour 20
    0.1,                     !- Hour 21
    0.1,                     !- Hour 22
    0.1,                     !- Hour 23
    0.1;                     !- Hour 24

  Schedule:Day:Hourly,
    equipOfficeWeekEnd,      !- Name
    Fraction,                !- Schedule Type Limits Name
    0.1,                     !- Hour 1
    0.1,                     !- Hour 2
    0.1,                     !- Hour 3
    0.1,                     !- Hour 4
    0.1,                     !- Hour 5
    0.1,                     !- Hour 6
    0.1,                     !- Hour 7
    0.2,                     !- Hour 8
    0.4,                     !- Hour 9
    0.6,                     !- Hour 10
    0.8,                     !- Hour 11
    0.8,                     !- Hour 12
    0.4,                     !- Hour 13
    0.6,                     !- Hour 14
    0.8,                     !- Hour 15
    0.8,                     !- Hour 16
    0.4,                     !- Hour 17
    0.2,                     !- Hour 18
    0.1,                     !- Hour 19
    0.1,                     !- Hour 20
    0.1,                     !- Hour 21
    0.1,                     !- Hour 22
    0.1,                     !- Hour 23
    0.1;                     !- Hour 24

  Schedule:Day:Hourly,
    60HrWkDay,               !- Name
    Fraction,                !- Schedule Type Limits Name
    0.2,                     !- Hour 1
    0.2,                     !- Hour 2
    0.2,                     !- Hour 3
    0.2,                     !- Hour 4
    0.2,                     !- Hour 5
    0.2,                     !- Hour 6
    0.2,                     !- Hour 7
    0.4,                     !- Hour 8
    0.8,                     !- Hour 9
    0.8,                     !- Hour 10
    1,                       !- Hour 11
    1,                       !- Hour 12
    0.8,                     !- Hour 13
    1,                       !- Hour 14
    1,                       !- Hour 15
    1,                       !- Hour 16
    0.8,                     !- Hour 17
    0.4,                     !- Hour 18
    0.2,                     !- Hour 19
    0.2,                     !- Hour 20
    0.2,                     !- Hour 21
    0.2,                     !- Hour 22
    0.2,                     !- Hour 23
    0.2;                     !- Hour 24

  Schedule:Day:Hourly,
    AllOff,                  !- Name
    Fraction,                !- Schedule Type Limits Name
    0,                       !- Hour 1
    0,                       !- Hour 2
    0,                       !- Hour 3
    0,                       !- Hour 4
    0,                       !- Hour 5
    0,                       !- Hour 6
    0,                       !- Hour 7
    0,                       !- Hour 8
    0,                       !- Hour 9
    0,                       !- Hour 10
    0,                       !- Hour 11
    0,                       !- Hour 12
    0,                       !- Hour 13
    0,                       !- Hour 14
    0,                       !- Hour 15
    0,                       !- Hour 16
    0,                       !- Hour 17
    0,                       !- Hour 18
    0,                       !- Hour 19
    0,                       !- Hour 20
    0,                       !- Hour 21
    0,                       !- Hour 22
    0,                       !- Hour 23
    0;                       !- Hour 24

!------------------------------------------------ ZONE ----------------------------------------------------

  Zone,
    0Perim,                  !- Name
    0,                       !- Direction of Relative North {deg}
    0,                       !- X Origin {m}
    0,                       !- Y Origin {m}
    0,                       !- Z Origin {m}
    1,                       !- Type
    1.0,                     !- Multiplier
    ,                        !- Ceiling Height {m}
    112.576110702067,        !- Volume {m3}
    25.2927160639901,        !- Floor Area {m2}
    TARP,                    !- Zone Inside Convection Algorithm
    DOE-2;                   !- Zone Outside Convection Algorithm

! ------------------------ PEOPLE

  People,
    People 0Perim,           !- Name
    0Perim,                  !- Zone or ZoneList Name
    30HrWk,                  !- Number of People Schedule Name
    People/Area,             !- Number of People Calculation Method
    ,                        !- Number of People
    0.05,                    !- People per Zone Floor Area {person/m2}
    ,                        !- Zone Floor Area per Person {m2/person}
    0.3,                     !- Fraction Radiant
    AUTOCALCULATE,           !- Sensible Heat Fraction
    0PerimPeopleActivity,    !- Activity Level Schedule Name
    0.0000000382,            !- Carbon Dioxide Generation Rate {m3/s-W}
    No,                      !- Enable ASHRAE 55 Comfort Warnings
    ZoneAveraged,            !- Mean Radiant Temperature Calculation Type
    ,                        !- Surface Name/Angle Factor List Name
    0PerimWorkEfficiency,    !- Work Efficiency Schedule Name
    DynamicClothingModelASHRAE55,  !- Clothing Insulation Calculation Method
    ,                        !- Clothing Insulation Calculation Method Schedule Name
    ,                        !- Clothing Insulation Schedule Name
    0PerimAirVelocity,       !- Air Velocity Schedule Name
    AdaptiveASH55;           !- Thermal Comfort Model 1 Type

  Schedule:Constant,0PerimPeopleActivity,Any Number,125.28;

  Schedule:Constant,0PerimAirVelocity,Any Number,0.2;

  Schedule:Constant,0PerimWorkEfficiency,Any Number,0;

! ------------------------ EQUIPMENT

  ElectricEquipment,
    0Perim Equipment 1,      !- Name
    0Perim,                  !- Zone or ZoneList Name
    60HrWk,                  !- Schedule Name
    Watts/Area,              !- Design Level Calculation Method
    ,                        !- Design Level {W}
    25,                      !- Watts per Zone Floor Area {W/m2}
    ,                        !- Watts per Person {W/person}
    0,                       !- Fraction Latent
    .2,                      !- Fraction Radiant
    0,                       !- Fraction Lost
    ;                        !- End-Use Subcategory

! ------------------------ LIGHTS

  Lights,
    0Perim General lighting, !- Name
    0Perim,                  !- Zone or ZoneList Name
    60HrWk,                  !- Schedule Name
    Watts/Area,              !- Design Level Calculation Method
    ,                        !- Lighting Level {W}
    20,                      !- Watts per Zone Floor Area {W/m2}
    ,                        !- Watts per Person {W/person}
    0,                       !- Return Air Fraction
    .42,                     !- Fraction Radiant
    .18,                     !- Fraction Visible
    1,                       !- Fraction Replaceable
    ;                        !- End-Use Subcategory

! ------------------------ HVAC

  Schedule:Constant,0PerimHeating_SP_Sch,Temperature,22;

  Schedule:Constant,0PerimCooling_SP_Sch,Temperature,22;

  ZoneControl:Thermostat,
    0Perim Thermostat,       !- Name
    0Perim,                  !- Zone or ZoneList Name
    0PerimZoneControlTypeSched,  !- Control Type Schedule Name
    ThermostatSetpoint:DualSetpoint,  !- Control 1 Object Type
    Dual Setpoint - Zone 0Perim;  !- Control 1 Name

  Schedule:Constant,0PerimZoneControlTypeSched,Any Number,4;

  ThermostatSetpoint:DualSetpoint,
    Dual Setpoint - Zone 0Perim,  !- Name
    0PerimHeating_SP_Sch,    !- Heating Setpoint Temperature Schedule Name
    0PerimCooling_SP_Sch;    !- Cooling Setpoint Temperature Schedule Name

  ZoneHVAC:EquipmentConnections,
    0Perim,                  !- Zone Name
    0Perim Equipment,        !- Zone Conditioning Equipment List Name
    0Perim Inlets,           !- Zone Air Inlet Node or NodeList Name
    ,                        !- Zone Air Exhaust Node or NodeList Name
    Node 0Perim Zone,        !- Zone Air Node Name
    Node 0Perim Out;         !- Zone Return Air Node or NodeList Name

  ZoneHVAC:EquipmentList,
    0Perim Equipment,        !- Name
    ZoneHVAC:IdealLoadsAirSystem,  !- Zone Equipment 1 Object Type
    0Perim Ideal Loads Air,  !- Zone Equipment 1 Name
    1,                       !- Zone Equipment 1 Cooling Sequence
    1;                       !- Zone Equipment 1 Heating or No-Load Sequence

  NodeList,
    0Perim Inlets,           !- Name
    Node 0Perim In;          !- Node 1 Name

  ZoneHVAC:IdealLoadsAirSystem,
    0Perim Ideal Loads Air,  !- Name
    ,                        !- Availability Schedule Name
    Node 0Perim In,          !- Zone Supply Air Node Name
    ,                        !- Zone Exhaust Air Node Name
    ,                        !- System Inlet Air Node Name
    30,                      !- Maximum Heating Supply Air Temperature {C}
    18,                      !- Minimum Cooling Supply Air Temperature {C}
    0.01,                    !- Maximum Heating Supply Air Humidity Ratio {kgWater/kgDryAir}
    0.008,                   !- Minimum Cooling Supply Air Humidity Ratio {kgWater/kgDryAir}
    NoLimit,                 !- Heating Limit
    100,                     !- Maximum Heating Air Flow Rate {m3/s}
    ,                        !- Maximum Sensible Heating Capacity {W}
    NoLimit,                 !- Cooling Limit
    100,                     !- Maximum Cooling Air Flow Rate {m3/s}
    ,                        !- Maximum Total Cooling Capacity {W}
    AllOn,                   !- Heating Availability Schedule Name
    AllOn,                   !- Cooling Availability Schedule Name
    None,                    !- Dehumidification Control Type
    ,                        !- Cooling Sensible Heat Ratio {dimensionless}
    None,                    !- Humidification Control Type
    0PerimMinFreshAir,       !- Design Specification Outdoor Air Object Name
    0Perim_OutDoorInlet,     !- Outdoor Air Inlet Node Name
    OccupancySchedule,       !- Demand Controlled Ventilation Type
    DifferentialEnthalpy,    !- Outdoor Air Economizer Type
    None,                    !- Heat Recovery Type
    0.7,                     !- Sensible Heat Recovery Effectiveness {dimensionless}
    0.65;                    !- Latent Heat Recovery Effectiveness {dimensionless}

  ZoneControl:Humidistat,
    0PerimHumidistat,        !- Name
    0Perim,                  !- Zone Name
    0PerimHumidMin,          !- Humidifying Relative Humidity Setpoint Schedule Name
    0PerimHumidMax;          !- Dehumidifying Relative Humidity Setpoint Schedule Name

  Schedule:Constant,0PerimHumidMin,Any Number,20;

  Schedule:Constant,0PerimHumidMax,Any Number,80;

  DesignSpecification:OutdoorAir,