! ----  This file was generated with Archsim v.4.0.2.38

Version,8.4;

ProgramControl,
4; !- Number of Threads Allowed

RunPeriod,
  Archsim,                 !- Name
  1,                       !- Begin Month
  1,                       !- Begin Day of Month
  12,                      !- End Month
  31,                      !- End Day of Month
  UseWeatherFile,          !- Day of Week for Start Day
  No,                      !- Use Weather File Holidays and Special Days
  No,                      !- Use Weather File Daylight Saving Period
  Yes,                     !- Apply Weekend Holiday Rule
  Yes,                     !- Use Weather File Rain Indicators
  Yes,                     !- Use Weather File Snow Indicators
  1;                       !- Number of Times Runperiod to be Repeated

RunPeriodControl:DaylightSavingTime,
  Last Sunday in March,    !- Start Date
  Last Sunday in October;  !- End Date

Site:GroundTemperature:BuildingSurface,14,14,14,14,14,14,14,14,14,14,14,14;

Site:GroundReflectance,0.2,0.2,0.2,0.2,0.2,0.2,0.2,0.2,0.2,0.2,0.2,0.2;

Site:GroundReflectance:SnowModifier,
  1.0,                     !- Ground Reflected Solar Modifier
  1.0;                     !- Daylighting Ground Reflected Solar Modifier

SimulationControl,
  Yes,                      !- Do Zone Sizing Calculation
  Yes,                      !- Do System Sizing Calculation
  Yes,                      !- Do Plant Sizing Calculation
  No,                      !- Run Simulation for Sizing Periods
  Yes;                     !- Run Simulation for Weather File Run Periods



ConvergenceLimits,
  1,                       !- Minimum System Timestep {minutes}
  50;                      !- Maximum HVAC Iterations

ScheduleTypeLimits,
  Any Number;              !- Name

ScheduleTypeLimits,
  Fraction,                !- Name
  0.0,                     !- Lower Limit Value
  1.0,                     !- Upper Limit Value
  CONTINUOUS;              !- Numeric Type

ScheduleTypeLimits,
  Temperature,             !- Name
  -60,                     !- Lower Limit Value
  200,                     !- Upper Limit Value
  CONTINUOUS;              !- Numeric Type

ScheduleTypeLimits,
  Control Type,            !- Name
  0,                       !- Lower Limit Value
  4,                       !- Upper Limit Value
  DISCRETE;                !- Numeric Type

ScheduleTypeLimits,
  On/Off,                  !- Name
  0,                       !- Lower Limit Value
  1,                       !- Upper Limit Value
  DISCRETE;                !- Numeric Type

Schedule:Constant,
  On,                      !- Name
  On/Off,                  !- Schedule Type Limits Name
  1;                       !- Value

Schedule:Constant,
  Off,                     !- Name
  On/Off,                  !- Schedule Type Limits Name
  0;                       !- Value


GlobalGeometryRules,
  LowerLeftCorner,         !- Starting Vertex Position
  CounterClockWise,        !- Vertex Entry Direction
  Relative;                !- Coordinate System

! -------------------------ERL SENSORS--------------------------

EnergyManagementSystem:Sensor,                                             
  OutdoorTemp, !- Name                                         
  Environment, !- Output:Variable Index Key Name               
  Site Outdoor Air Drybulb Temperature; !- Output:Variable Name
EnergyManagementSystem:Sensor,                                             
  OutdoorRelHumid, !- Name                                         
  Environment, !- Output:Variable Index Key Name               
  Site Outdoor Air Relative Humidity; !- Output:Variable Name


Output:EnergyManagementSystem,
  Verbose,                 !- Actuator Availability Dictionary Reporting
  Verbose,                 !- Internal Variable Availability Dictionary Reporting
  Verbose;                 !- EMS Runtime Language Debug Output Level




SizingPeriod:WeatherFileConditionType ,
Extreme Summer Weather Period for Design, !- Name
SummerExtreme , !- Period Selection
SummerDesignDay , !- Day Type
No, !- Use Weather File Daylight Saving Period
No; !- Use Weather File Rain and Snow Indicators

SizingPeriod:WeatherFileConditionType ,
Extreme Winter Weather Period for Design, !- Name
WinterExtreme , !- Period Selection
WinterDesignDay , !- Day Type
No, !- Use Weather File Daylight Saving Period
No; !- Use Weather File Rain and Snow Indicators

Sizing:Parameters,
    1.2,                     !- Heating Sizing Factor
    1.2;                     !- Cooling Sizing Factor




!-   ===========  ALL OBJECTS IN CLASS: HVACTEMPLATE:SYSTEM:VAV ===========

HVACTemplate:System:VAV,
    VAV Sys 1,               !- Name
    AllOn,                        !- System Availability Schedule Name
    autosize,                !- Supply Fan Maximum Flow Rate {m3/s}
    autosize,                !- Supply Fan Minimum Flow Rate {m3/s}
    0.7,                     !- Supply Fan Total Efficiency
    600,                     !- Supply Fan Delta Pressure {Pa}
    0.9,                     !- Supply Fan Motor Efficiency
    1,                       !- Supply Fan Motor in Air Stream Fraction
    ChilledWater,            !- Cooling Coil Type
    ,                        !- Cooling Coil Availability Schedule Name
    ,                        !- Cooling Coil Setpoint Schedule Name
    12.8,                    !- Cooling Coil Design Setpoint {C}
    HotWater,                !- Heating Coil Type
    ,                        !- Heating Coil Availability Schedule Name
    ,                        !- Heating Coil Setpoint Schedule Name
     10,                    !- Heating Coil Design Setpoint {C}
    0.8,                     !- Gas Heating Coil Efficiency
    0.0,                     !- Gas Heating Coil Parasitic Electric Load {W}
    None,                    !- Preheat Coil Type
    ,                        !- Preheat Coil Availability Schedule Name
    ,                        !- Preheat Coil Setpoint Schedule Name
    ,                        !- Preheat Coil Design Setpoint {C}
    0.8,                     !- Gas Preheat Coil Efficiency
    0.0,                     !- Gas Preheat Coil Parasitic Electric Load {W}
    autosize,                !- Maximum Outdoor Air Flow Rate {m3/s}
    autosize,                !- Minimum Outdoor Air Flow Rate {m3/s}
    FixedMinimum,            !- Minimum Outdoor Air Control Type
    ,                        !- Minimum Outdoor Air Schedule Name
    NoEconomizer,     !- Economizer Type
    NoLockout,               !- Economizer Lockout
    19,                      !- Economizer Upper Temperature Limit {C}
    4,                       !- Economizer Lower Temperature Limit {C}
    ,                        !- Economizer Upper Enthalpy Limit {J/kg}
    ,                        !- Economizer Maximum Limit Dewpoint Temperature {C}
    ,                        !- Supply Plenum Name
    ,                        !- Return Plenum Name
    DrawThrough,             !- Supply Fan Placement
    InletVaneDampers,        !- Supply Fan Part-Load Power Coefficients
    CycleOnAnyZoneFansOnly,  !- Night Cycle Control
    ,                        !- Night Cycle Control Zone Name
    None,                    !- Heat Recovery Type
   0.7,                    !- Sensible Heat Recovery Effectiveness
    0.65,                    !- Latent Heat Recovery Effectiveness
    None,                    !- Cooling Coil Setpoint Reset Type
    None,                    !- Heating Coil Setpoint Reset Type
    None,                    !- Dehumidification Control Type
    ,                        !- Dehumidification Control Zone Name
     80,                    !- Dehumidification Setpoint {percent}
    None,                    !- Humidifier Type
    ,                        !- Humidifier Availability Schedule Name
    0.000001,                !- Humidifier Rated Capacity {m3/s}
    2690.0,                  !- Humidifier Rated Electric Power {W}
    ,                        !- Humidifier Control Zone Name
    30,                    !- Humidifier Setpoint {percent}
    NonCoincident,           !- Sizing Option
    ,                        !- Return Fan
    ,                        !- Return Fan Total Efficiency
    ,                        !- Return Fan Delta Pressure {Pa}
    ,                        !- Return Fan Motor Efficiency
    ,                        !- Return Fan Motor in Air Stream Fraction
    ;                        !- Return Fan Part-Load Power Coefficients


!-   ===========  ALL OBJECTS IN CLASS: HVACTEMPLATE:PLANT:CHILLEDWATERLOOP ===========

HVACTemplate:Plant:ChilledWaterLoop,
    Chilled Water Loop,      !- Name
    ,                        !- Pump Schedule Name
    INTERMITTENT,            !- Pump Control Type
    Default,                 !- Chiller Plant Operation Scheme Type
    ,                        !- Chiller Plant Equipment Operation Schemes Name
    ,                        !- Chilled Water Setpoint Schedule Name
    7.22,                    !- Chilled Water Design Setpoint {C}
    ConstantPrimaryNoSecondary,  !- Chilled Water Pump Configuration
    179352,                  !- Primary Chilled Water Pump Rated Head {Pa}
    179352,                  !- Secondary Chilled Water Pump Rated Head {Pa}
    Default,                 !- Condenser Plant Operation Scheme Type
    ,                        !- Condenser Equipment Operation Schemes Name
    ,                        !- Condenser Water Temperature Control Type
    ,                        !- Condenser Water Setpoint Schedule Name
    29.4,                    !- Condenser Water Design Setpoint {C}
    179352,                  !- Condenser Water Pump Rated Head {Pa}
    None,                    !- Chilled Water Setpoint Reset Type
    12.2,                    !- Chilled Water Setpoint at Outdoor Dry-Bulb Low {C}
    15.6,                    !- Chilled Water Reset Outdoor Dry-Bulb Low {C}
    6.7,                     !- Chilled Water Setpoint at Outdoor Dry-Bulb High {C}
    26.7,                    !- Chilled Water Reset Outdoor Dry-Bulb High {C}
    ,                        !- Chilled Water Primary Pump Type
    ,                        !- Chilled Water Secondary Pump Type
    ,                        !- Condenser Water Pump Type
    ,                        !- Chilled Water Supply Side Bypass Pipe
    ,                        !- Chilled Water Demand Side Bypass Pipe
    ,                        !- Condenser Water Supply Side Bypass Pipe
    ,                        !- Condenser Water Demand Side Bypass Pipe
    ,                        !- Fluid Type
    ,                        !- Loop Design Delta Temperature {deltaC}
    7.22;                    !- Minimum Outdoor Dry Bulb Temperature {C}


!-   ===========  ALL OBJECTS IN CLASS: HVACTEMPLATE:PLANT:CHILLER ===========

HVACTemplate:Plant:Chiller,
    Main Chiller,            !- Name
    ElectricReciprocatingChiller,  !- Chiller Type
    autosize,                !- Capacity {W}
    4,                     !- Nominal COP {W/W}
    WaterCooled,             !- Condenser Type
    1,                       !- Priority
    ;                        !- Sizing Factor


!-   ===========  ALL OBJECTS IN CLASS: HVACTEMPLATE:PLANT:TOWER ===========

HVACTemplate:Plant:Tower,
    Main Tower,              !- Name
    SingleSpeed,             !- Tower Type
    autosize,                !- High Speed Nominal Capacity {W}
    autosize,                !- High Speed Fan Power {W}
    autosize,                !- Low Speed Nominal Capacity {W}
    autosize,                !- Low Speed Fan Power {W}
    autosize,                !- Free Convection Capacity {W}
    1,                       !- Priority
    ;                        !- Sizing Factor


!-   ===========  ALL OBJECTS IN CLASS: HVACTEMPLATE:PLANT:HOTWATERLOOP ===========

HVACTemplate:Plant:HotWaterLoop,
    Hot Water Loop,          !- Name
    ,                        !- Pump Schedule Name
    INTERMITTENT,            !- Pump Control Type
    Default,                 !- Hot Water Plant Operation Scheme Type
    ,                        !- Hot Water Plant Equipment Operation Schemes Name
    ,                        !- Hot Water Setpoint Schedule Name
    82,                      !- Hot Water Design Setpoint {C}
    ConstantFlow,            !- Hot Water Pump Configuration
    179352,                  !- Hot Water Pump Rated Head {Pa}
    OutdoorAirTemperatureReset,  !- Hot Water Setpoint Reset Type
    82.2,                    !- Hot Water Setpoint at Outdoor Dry-Bulb Low {C}
    -6.7,                    !- Hot Water Reset Outdoor Dry-Bulb Low {C}
    65.6,                    !- Hot Water Setpoint at Outdoor Dry-Bulb High {C}
    10;                      !- Hot Water Reset Outdoor Dry-Bulb High {C}


!-   ===========  ALL OBJECTS IN CLASS: HVACTEMPLATE:PLANT:BOILER ===========

HVACTemplate:Plant:Boiler,
    Main Boiler,             !- Name
    HotWaterBoiler,          !- Boiler Type
    autosize,                !- Capacity {W}
    0.9,                     !- Efficiency
    NaturalGas,              !- Fuel Type
    1,                       !- Priority
    ;                        !- Sizing Factor



ShadowCalculation,
  AverageOverDaysInFrequency,  !- Calculation Method
  20,                      !- Calculation Frequency
  15000,                   !- Maximum Figures in Shadow Overlap Calculations
  SutherlandHodgman,       !- Polygon Clipping Algorithm
  SimpleSkyDiffuseModeling;!- Sky Diffuse Modeling Algorithm

Building,
  Building,                !- Name
  0,                       !- North Axis [deg]
  Suburbs,                 !- Terrain
  .04,                     !- Loads Convergence Tolerance Value
  .4,                      !- Temperature Convergence Tolerance Value {deltaC}
  FullExterior,            !- Solar Distribution   should be  FullInteriorAndExterior
  25,                      !- Maximum Number of Warmup Days
  ;                        !- Minimum Number of Warmup Days

HeatBalanceAlgorithm,
    ConductionTransferFunction,  !- Algorithm
    200,                     !- Surface Temperature Upper Limit {C}
    0.1,                     !- Minimum Surface Convection Heat Transfer Coefficient Value {W/m2-K}
    1000;                    !- Maximum Surface Convection Heat Transfer Coefficient Value {W/m2-K}

Timestep,4;

SurfaceConvectionAlgorithm:Inside,TARP;

SurfaceConvectionAlgorithm:Outside,DOE-2;

! ------------ CONSTRUCTIONS 

! 115mmSandLimeBrick Type: Partition
Construction, 115mmSandLimeBrick,
Plaster_0.005_115mmSandLimeBrick,
Sand-Lime Brick_0.08_115mmSandLimeBrick,
Plaster_0.08_115mmSandLimeBrick;

Construction, 115mmSandLimeBrick_FLIPPED,
Plaster_0.08_115mmSandLimeBrick,
Sand-Lime Brick_0.08_115mmSandLimeBrick,
Plaster_0.005_115mmSandLimeBrick;



! Materials
!- Material: Plaster Type: Screed
Material, Plaster_0.005_115mmSandLimeBrick ,                !- Material name 
 Rough,                                         !- Roughness
 0.005,                                         !- Thickness {m}
 1,                                          !- Conductivity {w/m-K}
 2000,                                          !- Density {kg/m3}
 1130,                                          !- Specific Heat {J/kg-K}
 0.9,                                           !- Thermal Emittance
 0.6,                                           !- Solar Absorptance
 0.6;                                           !- Visible Absorptance

!- Material: Sand-Lime Brick Type: Masonry
Material, Sand-Lime Brick_0.08_115mmSandLimeBrick ,                !- Material name 
 Rough,                                         !- Roughness
 0.08,                                         !- Thickness {m}
 0.56,                                          !- Conductivity {w/m-K}
 1200,                                          !- Density {kg/m3}
 1000,                                          !- Specific Heat {J/kg-K}
 0.9,                                           !- Thermal Emittance
 0.6,                                           !- Solar Absorptance
 0.6;                                           !- Visible Absorptance

!- Material: Plaster Type: Screed
Material, Plaster_0.08_115mmSandLimeBrick ,                !- Material name 
 Rough,                                         !- Roughness
 0.08,                                         !- Thickness {m}
 1,                                          !- Conductivity {w/m-K}
 2000,                                          !- Density {kg/m3}
 1130,                                          !- Specific Heat {J/kg-K}
 0.9,                                           !- Thermal Emittance
 0.6,                                           !- Solar Absorptance
 0.6;                                           !- Visible Absorptance



! U0-5 Type: Facade
Construction, U0-5,
XPS Board_0.01_U0-5,
General Concrete_0.2_U0-5;

Construction, U0-5_FLIPPED,
General Concrete_0.2_U0-5,
XPS Board_0.01_U0-5;



! Materials
!- Material: XPS Board Type: Insulation
Material, XPS Board_0.01_U0-5 ,                !- Material name 
 Rough,                                         !- Roughness
 0.01,                                         !- Thickness {m}
 0.034,                                          !- Conductivity {w/m-K}
 35,                                          !- Density {kg/m3}
 1400,                                          !- Specific Heat {J/kg-K}
 0.9,                                           !- Thermal Emittance
 0.6,                                           !- Solar Absorptance
 0.6;                                           !- Visible Absorptance

!- Material: General Concrete Type: Concrete
Material, General Concrete_0.2_U0-5 ,                !- Material name 
 Rough,                                         !- Roughness
 0.2,                                         !- Thickness {m}
 2,                                          !- Conductivity {w/m-K}
 2400,                                          !- Density {kg/m3}
 950,                                          !- Specific Heat {J/kg-K}
 0.9,                                           !- Thermal Emittance
 0.7,                                           !- Solar Absorptance
 0.7;                                           !- Visible Absorptance



! U0-4 Type: Facade
Construction, U0-4,
XPS Board_0.06_U0-4,
General Concrete_0.2_U0-4;

Construction, U0-4_FLIPPED,
General Concrete_0.2_U0-4,
XPS Board_0.06_U0-4;



! Materials
!- Material: XPS Board Type: Insulation
Material, XPS Board_0.06_U0-4 ,                !- Material name 
 Rough,                                         !- Roughness
 0.06,                                         !- Thickness {m}
 0.034,                                          !- Conductivity {w/m-K}
 35,                                          !- Density {kg/m3}
 1400,                                          !- Specific Heat {J/kg-K}
 0.9,                                           !- Thermal Emittance
 0.6,                                           !- Solar Absorptance
 0.6;                                           !- Visible Absorptance

!- Material: General Concrete Type: Concrete
Material, General Concrete_0.2_U0-4 ,                !- Material name 
 Rough,                                         !- Roughness
 0.2,                                         !- Thickness {m}
 2,                                          !- Conductivity {w/m-K}
 2400,                                          !- Density {kg/m3}
 950,                                          !- Specific Heat {J/kg-K}
 0.9,                                           !- Thermal Emittance
 0.7,                                           !- Solar Absorptance
 0.7;                                           !- Visible Absorptance




! ------------ GLAZING  

! Double Type: Double
Construction, Double,
Generic Clear Glass 6mm_0.006_Double,
ARGON_0.0013_Double,
Generic Clear Glass 6mm_0.006_Double;

Construction, Double_FLIPPED,
Generic Clear Glass 6mm_0.006_Double,
ARGON_0.0013_Double,
Generic Clear Glass 6mm_0.006_Double;



! Materials
WindowMaterial:Glazing,Generic Clear Glass 6mm_0.006_Double,                         !- Generic CLEAR 3MM
 SpectralAverage,                               !- Optical data type {SpectralAverage or Spectral}
 SpectralAverage,                                              !- Name of spectral data set when Optical Data Type = Spectral
 0.006,                                          !- Thickness {m}
 0.68,                                          !- Solar transmittance at normal incidence
 0.09,                                          !- Solar reflectance at normal incidence: front side
 0.1,                                          !- Solar reflectance at normal incidence: back side
 0.81,                                          !- Visible transmittance at normal incidence
 0.11,                                          !- Visible reflectance at normal incidence: front side
 0.12,                                          !- Visible reflectance at normal incidence: back side
 0,                                            !- IR transmittance at normal incidence
 0.2,                                           !- IR emissivity: front side
 0.2,                                           !- IR emissivity: back side
 0.9,                                            !- Conductivity {W/m-K}
 1;                                             !- Dirt Correction Factor for Solar and Visible Transmittance

! Gas: ARGON GasType: ARGON
WindowMaterial:Gas,ARGON_0.0013_Double ,                !- Material name 
 ARGON,                                           !- Gas type (Air - Argon - Krypton - Xenon - SF6 - Custom)
 0.0013;                                         !- Thickness {m}





! ------------ SCHEDULES  

Schedule:Year,AllOn,Fraction,AllOn,1,1,12,31;

Schedule:Year,equipOffice,Fraction,equipOffice,1,1,12,31;

Schedule:Year,60HrWk,Fraction,60HrWk,1,1,12,31;

Schedule:Week:Daily, AllOn,
  AllOn,
  AllOn,
  AllOn,
  AllOn,
  AllOn,
  AllOn,
  AllOn,
  AllOn,
  AllOn,
  AllOn,
  AllOn,
  AllOn;

Schedule:Week:Daily, equipOffice,
  equipOfficeWeekEnd,
  equipOffice,
  equipOffice,
  equipOffice,
  equipOffice,
  equipOffice,
  equipOfficeWeekEnd,
  equipOfficeWeekEnd,
  equipOffice,
  equipOffice,
  equipOffice,
  equipOffice;

Schedule:Week:Daily, 60HrWk,
  60HrWkDay,
  60HrWkDay,
  60HrWkDay,
  60HrWkDay,
  60HrWkDay,
  60HrWkDay,
  60HrWkDay,
  60HrWkDay,
  60HrWkDay,
  60HrWkDay,
  60HrWkDay,
  60HrWkDay;

Schedule:Day:Hourly, AllOn, Fraction,1,1,1,1,1,1,1,1,1,1,1,1,1,1,1,1,1,1,1,1,1,1,1,1;

Schedule:Day:Hourly, equipOffice, Fraction,0.1,0.1,0.1,0.1,0.1,0.1,0.1,0.2,0.4,0.6,0.8,0.8,0.4,0.6,0.8,0.8,0.4,0.2,0.1,0.1,0.1,0.1,0.1,0.1;

Schedule:Day:Hourly, equipOfficeWeekEnd, Fraction,0.1,0.1,0.1,0.1,0.1,0.1,0.1,0.2,0.4,0.6,0.8,0.8,0.4,0.6,0.8,0.8,0.4,0.2,0.1,0.1,0.1,0.1,0.1,0.1;

Schedule:Day:Hourly, 60HrWkDay, Fraction,0.2,0.2,0.2,0.2,0.2,0.2,0.2,0.4,0.8,0.8,1,1,0.8,1,1,1,0.8,0.4,0.2,0.2,0.2,0.2,0.2,0.2;




!------------------------------------------------ ZONE ----------------------------------------------------

Zone,
  0Perim,            !- Name
  0,                       !- Rotation [deg]
  0,                       !- X origin [m]
  0,                       !- Y origin [m]
  0,                       !- Z origin [m]
  1,                       !- Type
  1.0,                       !- Multiplier
  ,                        !- Ceiling Height [m]
  130.164129293807,                   !- Volume [m3]
  27.772137662643,                   !- Area [m2]
  TARP,                    !- Zone Inside Convection Algorithm
  DOE-2;                   !- Zone Outside Convection Algorithm

! ------------------------ PEOPLE
People,
    People 0Perim,                 !- Name
    0Perim,            !- Zone or ZoneList Name
    AllOn,        !- Number of People Schedule Name
    People/Area,                  !- Number of People Calculation Method
    ,                       !- Number of People
    0.25,                        !- People per Zone Floor Area {person/m2}
    ,                        !- Zone Floor Area per Person {m2/person}
    0.3,                     !- Fraction Radiant
    AUTOCALCULATE,           !- Sensible Heat Fraction
    0PerimPeopleActivity,                    !- Activity Level Schedule Name
    0.0000000382,            !- Carbon Dioxide Generation Rate {m3/s-W}
    No,                      !- Enable ASHRAE 55 Comfort Warnings
    ZoneAveraged,            !- Mean Radiant Temperature Calculation Type
    ,                        !- Surface Name/Angle Factor List Name
    0PerimWorkEfficiency,  !- Work Efficiency Schedule Name
    DynamicClothingModelASHRAE55,  !- Clothing Insulation Calculation Method
    ,                        !- Clothing Insulation Calculation Method Schedule Name
    ,                        !- Clothing Insulation Schedule Name
    0PerimAirVelocity,!- Air Velocity Schedule Name
    AdaptiveASH55;           !- Thermal Comfort Model 1 Type

Schedule:Constant, 0PerimPeopleActivity, Any Number, 125.28; ! - Watts per person, uses Metabolic Rate input (1 met = 58 W/m2) and assumes adult body surface area of 1.8 m2
Schedule:Constant, 0PerimAirVelocity, Any Number, 0.2;
Schedule:Constant, 0PerimWorkEfficiency, Any Number, 0;


! ------------------------ EQUIPMENT
ElectricEquipment,
  0Perim Equipment 1,!- Name
  0Perim,            !- Zone or ZoneList Name
  AllOn,                    !- Schedule Name
  Watts/Area,          !- Design Level Calculation Method
  ,                !- Design Level [W]
  15,                        !- Watts per Zone Floor Area [W/m2]
  ,                        !- Watts per Person [W/person]
  0,                       !- Fraction Latent
  .2,                      !- Fraction Radiant
  0,                       !- Fraction Lost
  ;                        !- End-Use Subcategory

! ------------------------ LIGHTS
Lights,
  0Perim General lighting,   !- Name
  0Perim,                    !- Zone or ZoneList Name
  60HrWk,          !- Schedule Name
  Watts/Area,              !- Design Level Calculation Method
  ,                        !- Lighting Level [W]
  15,         !- Watts per Zone Floor Area [W/m2]
  ,                        !- Watts per Person [W/person]
  0,                       !- Return Air Fraction
  .42,                     !- Fraction Radiant
  .18,                     !- Fraction Visible
  1,                       !- Fraction Replaceable
  ;                        !- End-Use Subcategory


! ------------------------ DAYLIGHT CONTROLS
Daylighting:Controls,
0Perim,            !-Zone Name
1,                       !-Total Daylighting Reference Points
0.955863379988924,                  !-X - Coordinate of First Reference Point {m}
-390.213834088598,                  !-Y - Coordinate of First Reference Point {m}
5.53686029411762,                      !-Z - Coordinate of First Reference Point {m}
,                        !-X - Coordinate of Second Reference Point {m}
,                        !-Y - Coordinate of Second Reference Point {m}
,                        !-Z - Coordinate of Second Reference Point {m}
1,                       !-Fraction of Zone Controlled by First Reference Point
0,                       !-Fraction of Zone Controlled by Second Reference Point
500,                     !-Illuminance Setpoint at First Reference Point {lux}
500,                     !-Illuminance Setpoint at Second Reference Point {lux}
2 ,                       !-Lighting control type {1=continuous,2=stepped,3=continuous/off}
0,                       !-Glare Calculation Azimuth Angle of View Direction Clockwise from Zone y-Axis {deg}
22,                      !-Maximum Allowable Discomfort Glare Index
0.1,                     !-Minimum Input Power Fraction for Continuous Dimming Control
0.1,                     !-Minimum Light Output Fraction for Continuous Dimming Control
3,                       !-Number of Stepped Control Steps
1;                       !-Probability Lighting will be Reset When Needed in Manual Stepped Control
HVACTemplate:Thermostat,
    0PerimThermostat,                  !- Name
    ,                        !- Heating Setpoint Schedule Name
    22,                      !- Constant Heating Setpoint {C}
    ,                        !- Cooling Setpoint Schedule Name
    26;                      !- Constant Cooling Setpoint {C}

HVACTemplate:Zone:VAV:FanPowered,
    0Perim,                !- Zone Name
    VAV Sys 1,               !- Template VAV System Name
    0PerimThermostat,               !- Template Thermostat Name
    autosize,                !- Primary Supply Air Maximum Flow Rate {m3/s}
    ,                        !- Zone Heating Sizing Factor
    ,                        !- Zone Cooling Sizing Factor
    autosize,                !- Primary Supply Air Minimum Flow Fraction
    autosize,                !- Secondary Supply Air Maximum Flow Rate {m3/s}
    Series,                  !- Flow Type
    autosize,                !- Parallel Fan On Flow Fraction
    Sum,             !- Outdoor Air Method
    0.001,                 !- Outdoor Air Flow Rate per Person {m3/s}
    0.0003,                     !- Outdoor Air Flow Rate per Zone Floor Area {m3/s-m2}
    0.0,                     !- Outdoor Air Flow Rate per Zone {m3/s}
    HotWater,                !- Reheat Coil Type
    ,                        !- Reheat Coil Availability Schedule Name
    0.7,                     !- Fan Total Efficiency
    1,                    !- Fan Delta Pressure {Pa}
     0.9,                     !- Fan Motor Efficiency
    ,                        !- Supply Plenum Name
    ,                        !- Return Plenum Name
    None,                    !- Baseboard Heating Type
    ,                        !- Baseboard Heating Availability Schedule Name