! ----  This file was generated with Archsim v.4.0.2.17

Version,8.4;
ProgramControl,
4; !- Number of Threads Allowed

RunPeriod,
  ArchSim,                 !- Name
  1,                       !- Begin Month
  1,                       !- Begin Day of Month
  12,                      !- End Month
  31,                      !- End Day of Month
  UseWeatherFile,          !- Day of Week for Start Day
  No,                      !- Use Weather File Holidays and Special Days
  No,                      !- Use Weather File Daylight Saving Period
  Yes,                     !- Apply Weekend Holiday Rule
  Yes,                     !- Use Weather File Rain Indicators
  Yes,                     !- Use Weather File Snow Indicators
  1;                       !- Number of Times Runperiod to be Repeated

RunPeriodControl:DaylightSavingTime,
  Last Sunday in March,    !- Start Date
  Last Sunday in October;  !- End Date

Site:GroundTemperature:BuildingSurface,14,14,14,14,14,14,14,14,14,14,14,14;

Site:GroundReflectance,0.2,0.2,0.2,0.2,0.2,0.2,0.2,0.2,0.2,0.2,0.2,0.2;

Site:GroundReflectance:SnowModifier,
  1.0,                     !- Ground Reflected Solar Modifier
  1.0;                     !- Daylighting Ground Reflected Solar Modifier

SimulationControl,
  No,                      !- Do Zone Sizing Calculation
  No,                      !- Do System Sizing Calculation
  No,                      !- Do Plant Sizing Calculation
  No,                      !- Run Simulation for Sizing Periods
  Yes;                     !- Run Simulation for Weather File Run Periods



ConvergenceLimits,
  1,                       !- Minimum System Timestep {minutes}
  50;                      !- Maximum HVAC Iterations

ScheduleTypeLimits,
  Any Number;              !- Name

ScheduleTypeLimits,
  Fraction,                !- Name
  0.0,                     !- Lower Limit Value
  1.0,                     !- Upper Limit Value
  CONTINUOUS;              !- Numeric GasType

ScheduleTypeLimits,
  Temperature,             !- Name
  -60,                     !- Lower Limit Value
  200,                     !- Upper Limit Value
  CONTINUOUS;              !- Numeric GasType

ScheduleTypeLimits,
  Control GasType,            !- Name
  0,                       !- Lower Limit Value
  4,                       !- Upper Limit Value
  DISCRETE;                !- Numeric GasType

ScheduleTypeLimits,
  On/Off,                  !- Name
  0,                       !- Lower Limit Value
  1,                       !- Upper Limit Value
  DISCRETE;                !- Numeric GasType

Schedule:Constant,
  On,                      !- Name
  On/Off,                  !- Schedule GasType Limits Name
  1;                       !- Value

Schedule:Constant,
  Off,                     !- Name
  On/Off,                  !- Schedule GasType Limits Name
  0;                       !- Value


GlobalGeometryRules,
  LowerLeftCorner,         !- Starting Vertex Position
  CounterClockWise,        !- Vertex Entry Direction
  Relative;                !- Coordinate System

! -------------------------ERL SENSORS--------------------------

EnergyManagementSystem:Sensor,                                             
  OutdoorTemp, !- Name                                         
  Environment, !- Output:Variable Index Key Name               
  Site Outdoor Air Drybulb Temperature; !- Output:Variable Name
EnergyManagementSystem:Sensor,                                             
  OutdoorRelHumid, !- Name                                         
  Environment, !- Output:Variable Index Key Name               
  Site Outdoor Air Relative Humidity; !- Output:Variable Name


Output:EnergyManagementSystem,
  Verbose,                 !- Actuator Availability Dictionary Reporting
  Verbose,                 !- Internal Variable Availability Dictionary Reporting
  Verbose;                 !- EMS Runtime Language Debug Output Level



ShadowCalculation,
  AverageOverDaysInFrequency,  !- Calculation Method
  60,                      !- Calculation Frequency
  15000,                   !- Maximum Figures in Shadow Overlap Calculations
  SutherlandHodgman,       !- Polygon Clipping Algorithm
  SimpleSkyDiffuseModeling;!- Sky Diffuse Modeling Algorithm

Building,
  Building,                !- Name
  0,                       !- North Axis [deg]
  Suburbs,                 !- Terrain
  .04,                     !- Loads Convergence Tolerance Value
  .4,                      !- Temperature Convergence Tolerance Value {deltaC}
  MinimalShadowing,            !- Solar Distribution   should be  FullInteriorAndExterior
  25,                      !- Maximum Number of Warmup Days
  ;                        !- Minimum Number of Warmup Days

HeatBalanceAlgorithm,
    ConductionTransferFunction,  !- Algorithm
    200,                     !- Surface Temperature Upper Limit {C}
    0.1,                     !- Minimum Surface Convection Heat Transfer Coefficient Value {W/m2-K}
    1000;                    !- Maximum Surface Convection Heat Transfer Coefficient Value {W/m2-K}

Timestep,4;

SurfaceConvectionAlgorithm:Inside,TARP;

SurfaceConvectionAlgorithm:Outside,DOE-2;

! ------------ CONSTRUCTIONS 

! 115mmSandLimeBrick GasType: Partition
Construction, 115mmSandLimeBrick,
Plaster_0.005_115mmSandLimeBrick,
Sand-Lime Brick_0.08_115mmSandLimeBrick,
Plaster_0.08_115mmSandLimeBrick;

Construction, 115mmSandLimeBrick_FLIPPED,
Plaster_0.08_115mmSandLimeBrick,
Sand-Lime Brick_0.08_115mmSandLimeBrick,
Plaster_0.005_115mmSandLimeBrick;



! Materials
!- Material: Plaster GasType: Screed
Material, Plaster_0.005_115mmSandLimeBrick ,                !- Material name 
 Rough,                                         !- Roughness
 0.005,                                         !- Thickness {m}
 1,                                          !- Conductivity {w/m-K}
 2000,                                          !- Density {kg/m3}
 1130,                                          !- Specific Heat {J/kg-K}
 0.9,                                           !- Thermal Emittance
 0.6,                                           !- Solar Absorptance
 0.6;                                           !- Visible Absorptance

!- Material: Sand-Lime Brick GasType: Masonry
Material, Sand-Lime Brick_0.08_115mmSandLimeBrick ,                !- Material name 
 Rough,                                         !- Roughness
 0.08,                                         !- Thickness {m}
 0.56,                                          !- Conductivity {w/m-K}
 1200,                                          !- Density {kg/m3}
 1000,                                          !- Specific Heat {J/kg-K}
 0.9,                                           !- Thermal Emittance
 0.6,                                           !- Solar Absorptance
 0.6;                                           !- Visible Absorptance

!- Material: Plaster GasType: Screed
Material, Plaster_0.08_115mmSandLimeBrick ,                !- Material name 
 Rough,                                         !- Roughness
 0.08,                                         !- Thickness {m}
 1,                                          !- Conductivity {w/m-K}
 2000,                                          !- Density {kg/m3}
 1130,                                          !- Specific Heat {J/kg-K}
 0.9,                                           !- Thermal Emittance
 0.6,                                           !- Solar Absorptance
 0.6;                                           !- Visible Absorptance



! U0-4 GasType: Facade
Construction, U0-4,
XPS Board_0.06_U0-4,
General Concrete_0.2_U0-4;

Construction, U0-4_FLIPPED,
General Concrete_0.2_U0-4,
XPS Board_0.06_U0-4;



! Materials
!- Material: XPS Board GasType: Insulation
Material, XPS Board_0.06_U0-4 ,                !- Material name 
 Rough,                                         !- Roughness
 0.06,                                         !- Thickness {m}
 0.034,                                          !- Conductivity {w/m-K}
 35,                                          !- Density {kg/m3}
 1400,                                          !- Specific Heat {J/kg-K}
 0.9,                                           !- Thermal Emittance
 0.6,                                           !- Solar Absorptance
 0.6;                                           !- Visible Absorptance

!- Material: General Concrete GasType: Concrete
Material, General Concrete_0.2_U0-4 ,                !- Material name 
 Rough,                                         !- Roughness
 0.2,                                         !- Thickness {m}
 2,                                          !- Conductivity {w/m-K}
 2400,                                          !- Density {kg/m3}
 950,                                          !- Specific Heat {J/kg-K}
 0.9,                                           !- Thermal Emittance
 0.7,                                           !- Solar Absorptance
 0.7;                                           !- Visible Absorptance



! U0-3 GasType: Facade
Construction, U0-3,
XPS Board_0.12_U0-3,
General Concrete_0.2_U0-3;

Construction, U0-3_FLIPPED,
General Concrete_0.2_U0-3,
XPS Board_0.12_U0-3;



! Materials
!- Material: XPS Board GasType: Insulation
Material, XPS Board_0.12_U0-3 ,                !- Material name 
 Rough,                                         !- Roughness
 0.12,                                         !- Thickness {m}
 0.034,                                          !- Conductivity {w/m-K}
 35,                                          !- Density {kg/m3}
 1400,                                          !- Specific Heat {J/kg-K}
 0.9,                                           !- Thermal Emittance
 0.6,                                           !- Solar Absorptance
 0.6;                                           !- Visible Absorptance

!- Material: General Concrete GasType: Concrete
Material, General Concrete_0.2_U0-3 ,                !- Material name 
 Rough,                                         !- Roughness
 0.2,                                         !- Thickness {m}
 2,                                          !- Conductivity {w/m-K}
 2400,                                          !- Density {kg/m3}
 950,                                          !- Specific Heat {J/kg-K}
 0.9,                                           !- Thermal Emittance
 0.7,                                           !- Solar Absorptance
 0.7;                                           !- Visible Absorptance




! ------------ GLAZING  

! Double GasType: Double
Construction, Double,
Generic Clear Glass 6mm_0.006_Double,
ARGON_0.0013_Double,
Generic Clear Glass 6mm_0.006_Double;

Construction, Double_FLIPPED,
Generic Clear Glass 6mm_0.006_Double,
ARGON_0.0013_Double,
Generic Clear Glass 6mm_0.006_Double;



! Materials
WindowMaterial:Glazing,Generic Clear Glass 6mm_0.006_Double,                         !- Generic CLEAR 3MM
 SpectralAverage,                               !- Optical data type {SpectralAverage or Spectral}
 SpectralAverage,                                              !- Name of spectral data set when Optical Data GasType = Spectral
 0.006,                                          !- Thickness {m}
 0.68,                                          !- Solar transmittance at normal incidence
 0.09,                                          !- Solar reflectance at normal incidence: front side
 0.1,                                          !- Solar reflectance at normal incidence: back side
 0.81,                                          !- Visible transmittance at normal incidence
 0.11,                                          !- Visible reflectance at normal incidence: front side
 0.12,                                          !- Visible reflectance at normal incidence: back side
 0,                                            !- IR transmittance at normal incidence
 0.2,                                           !- IR emissivity: front side
 0.2,                                           !- IR emissivity: back side
 0.9,                                            !- Conductivity {W/m-K}
 1;                                             !- Dirt Correction Factor for Solar and Visible Transmittance

! Gas: ARGON GasType: ARGON
WindowMaterial:Gas,ARGON_0.0013_Double ,                !- Material name 
 ARGON,                                           !- Gas type (Air - Argon - Krypton - Xenon - SF6 - Custom)
 0.0013;                                         !- Thickness {m}





! ------------ SCHEDULES  

Schedule:Year,60HrWk,Fraction,60HrWk,1,1,12,31;

Schedule:Year,AllOn,Fraction,AllOn,1,1,12,31;

Schedule:Year,equipOffice,Fraction,equipOffice,1,1,12,31;

Schedule:Year,AllOff,Fraction,AllOff,1,1,12,31;

Schedule:Week:Daily, 60HrWk,
  60HrWkDay,
  60HrWkDay,
  60HrWkDay,
  60HrWkDay,
  60HrWkDay,
  60HrWkDay,
  60HrWkDay,
  60HrWkDay,
  60HrWkDay,
  60HrWkDay,
  60HrWkDay,
  60HrWkDay;

Schedule:Week:Daily, AllOn,
  AllOn,
  AllOn,
  AllOn,
  AllOn,
  AllOn,
  AllOn,
  AllOn,
  AllOn,
  AllOn,
  AllOn,
  AllOn,
  AllOn;

Schedule:Week:Daily, equipOffice,
  equipOfficeWeekEnd,
  equipOffice,
  equipOffice,
  equipOffice,
  equipOffice,
  equipOffice,
  equipOfficeWeekEnd,
  equipOfficeWeekEnd,
  equipOffice,
  equipOffice,
  equipOffice,
  equipOffice;

Schedule:Week:Daily, AllOff,
  AllOff,
  AllOff,
  AllOff,
  AllOff,
  AllOff,
  AllOff,
  AllOff,
  AllOff,
  AllOff,
  AllOff,
  AllOff,
  AllOff;

Schedule:Day:Hourly, 60HrWkDay, Fraction,0.2,0.2,0.2,0.2,0.2,0.2,0.2,0.4,0.8,0.8,1,1,0.8,1,1,1,0.8,0.4,0.2,0.2,0.2,0.2,0.2,0.2;

Schedule:Day:Hourly, AllOn, Fraction,1,1,1,1,1,1,1,1,1,1,1,1,1,1,1,1,1,1,1,1,1,1,1,1;

Schedule:Day:Hourly, equipOffice, Fraction,0.1,0.1,0.1,0.1,0.1,0.1,0.1,0.2,0.4,0.6,0.8,0.8,0.4,0.6,0.8,0.8,0.4,0.2,0.1,0.1,0.1,0.1,0.1,0.1;

Schedule:Day:Hourly, equipOfficeWeekEnd, Fraction,0.1,0.1,0.1,0.1,0.1,0.1,0.1,0.2,0.4,0.6,0.8,0.8,0.4,0.6,0.8,0.8,0.4,0.2,0.1,0.1,0.1,0.1,0.1,0.1;

Schedule:Day:Hourly, AllOff, Fraction,0,0,0,0,0,0,0,0,0,0,0,0,0,0,0,0,0,0,0,0,0,0,0,0;




!------------------------------------------------ ZONE ----------------------------------------------------

Zone,
  0Perim,            !- Name
  0,                       !- Rotation [deg]
  0,                       !- X origin [m]
  0,                       !- Y origin [m]
  0,                       !- Z origin [m]
  1,                       !- GasType
  1.0,                       !- Multiplier
  ,                        !- Ceiling Height [m]
  117.401744733584,                   !- Volume [m3]
  25.8296575980329,                   !- Area [m2]
  TARP,                    !- Zone Inside Convection Algorithm
  DOE-2;                   !- Zone Outside Convection Algorithm

! ------------------------ PEOPLE
People,
    People 0Perim,                 !- Name
    0Perim,            !- Zone or ZoneList Name
    60HrWk,        !- Number of People Schedule Name
    People/Area,                  !- Number of People Calculation Method
    ,                       !- Number of People
    0.25,                        !- People per Zone Floor Area {person/m2}
    ,                        !- Zone Floor Area per Person {m2/person}
    0.3,                     !- Fraction Radiant
    AUTOCALCULATE,           !- Sensible Heat Fraction
    0PerimPeopleActivity,                    !- Activity Level Schedule Name
    0.0000000382,            !- Carbon Dioxide Generation Rate {m3/s-W}
    No,                      !- Enable ASHRAE 55 Comfort Warnings
    ZoneAveraged,            !- Mean Radiant Temperature Calculation GasType
    ,                        !- Surface Name/Angle Factor List Name
    0PerimWorkEfficiency,  !- Work Efficiency Schedule Name
    DynamicClothingModelASHRAE55,  !- Clothing Insulation Calculation Method
    ,                        !- Clothing Insulation Calculation Method Schedule Name
    ,                        !- Clothing Insulation Schedule Name
    0PerimAirVelocity,!- Air Velocity Schedule Name
    AdaptiveASH55;           !- Thermal Comfort Model 1 GasType

Schedule:Constant, 0PerimPeopleActivity, Any Number, 125.28; ! - Watts per person, uses Metabolic Rate input (1 met = 58 W/m2) and assumes adult body surface area of 1.8 m2
Schedule:Constant, 0PerimAirVelocity, Any Number, 0.2;
Schedule:Constant, 0PerimWorkEfficiency, Any Number, 0;


! ------------------------ EQUIPMENT
ElectricEquipment,
  0Perim Equipment 1,!- Name
  0Perim,            !- Zone or ZoneList Name
  AllOn,                    !- Schedule Name
  Watts/Area,          !- Design Level Calculation Method
  ,                !- Design Level [W]
  25,                        !- Watts per Zone Floor Area [W/m2]
  ,                        !- Watts per Person [W/person]
  0,                       !- Fraction Latent
  .2,                      !- Fraction Radiant
  0,                       !- Fraction Lost
  ;                        !- End-Use Subcategory

! ------------------------ LIGHTS
Lights,
  0Perim General lighting,   !- Name
  0Perim,                    !- Zone or ZoneList Name
  60HrWk,          !- Schedule Name
  Watts/Area,              !- Design Level Calculation Method
  ,                        !- Lighting Level [W]
  20,         !- Watts per Zone Floor Area [W/m2]
  ,                        !- Watts per Person [W/person]
  0,                       !- Return Air Fraction
  .42,                     !- Fraction Radiant
  .18,                     !- Fraction Visible
  1,                       !- Fraction Replaceable
  ;                        !- End-Use Subcategory



! ------------------------ HVAC
Schedule:Constant,
0PerimHeating_SP_Sch, !- Name
Temperature, !- Schedule GasType Limits Name
24; !- Hourly Value

Schedule:Constant,
0PerimCooling_SP_Sch, !- Name
Temperature, !- Schedule GasType Limits Name
24; !- Hourly Value

ZoneControl:Thermostat,
  0Perim Thermostat, !- Name
  0Perim,            !- Zone or ZoneList Name
  0PerimZoneControlTypeSched, !- Control GasType Schedule Name
  ThermostatSetpoint:DualSetpoint,  !- Control 1 Object GasType
  Dual Setpoint - Zone 0Perim;  !- Control 1 Name

Schedule:Constant,
  0PerimZoneControlTypeSched, !- Name
  Any Number, !- Schedule GasType Limits Name
  4; !- Hourly Value

ThermostatSetpoint:DualSetpoint,
  Dual Setpoint - Zone 0Perim,  !- Name
  0PerimHeating_SP_Sch,  !- Heating Setpoint Temperature Schedule Name
  0PerimCooling_SP_Sch;  !- Cooling Setpoint Temperature Schedule Name

ZoneHVAC:EquipmentConnections,
  0Perim,            !- Zone Name
  0Perim Equipment,  !- Zone Conditioning Equipment List Name
  0Perim Inlets,     !- Zone Air Inlet Node or NodeList Name
  ,                        !- Zone Air Exhaust Node or NodeList Name
  Node 0Perim Zone,  !- Zone Air Node Name
  Node 0Perim Out;   !- Zone Return Air Node Name

ZoneHVAC:EquipmentList,
  0Perim Equipment,  !- Name
  ZoneHVAC:IdealLoadsAirSystem,  !- Zone Equipment 1 Object GasType
  0Perim Ideal Loads Air,  !- Zone Equipment 1 Name
  1,                       !- Zone Equipment 1 Cooling Sequence
  1;                       !- Zone Equipment 1 Heating or No-Load Sequence

NodeList,
  0Perim Inlets,     !- Name
  Node 0Perim In;    !- Node 1 Name

ZoneHVAC:IdealLoadsAirSystem,
  0Perim Ideal Loads Air,  !- Name
  ,                        !- Availability Schedule Name
  Node 0Perim In,    !- Zone Supply Air Node Name
  ,                        !- Zone Exhaust Air Node Name
  30,                      !- Maximum Heating Supply Air Temperature {C}
  18,                      !- Minimum Cooling Supply Air Temperature {C}
  0.01,                    !- Maximum Heating Supply Air Humidity Ratio {kgWater/kgDryAir}
  0.008,                   !- Minimum Cooling Supply Air Humidity Ratio {kgWater/kgDryAir}
  NoLimit,                 !- Heating Limit
  100,                        !- Maximum Heating Air Flow Rate [m3/s]
  ,        				   !- Maximum Sensible Heating Capacity [W]
  NoLimit,                 !- Cooling Limit
  100 ,                        !- Maximum Cooling Air Flow Rate [m3/s]
  ,                        !- Maximum Total Cooling Capacity [W]
  AllOn,  !- Heating Availability Schedule Name
  AllOn,  !- Cooling Availability Schedule Name
  None,                    !- Dehumidification Control Type
  ,                        !- Cooling Sensible Heat Ratio {dimensionless}
  None,                    !- Humidification Control Type
  0PerimMinFreshAir,                        !- Design Specification Outdoor Air Object Name
  0Perim_OutDoorInlet,                        !- Outdoor Air Inlet Node Name
  OccupancySchedule,                        !- Demand Controlled Ventilation GasType
  NoEconomizer,                        !- Outdoor Air Economizer GasType
  None,                        !- Heat Recovery GasType
  0.7,                        !- Sensible Heat Recovery Effectiveness {dimensionless}
  0.65;                        !- Latent Heat Recovery Effectiveness {dimensionless}


ZoneControl:Humidistat,
    0PerimHumidistat,                  !-Name
    0Perim,                   !-Zone Name
    0PerimHumidMin,                !-Humidifying Relative Humidity Setpoint Schedule Name
    0PerimHumidMax; !-Dehumidifying Relative Humidity Setpoint Schedule Name

Schedule:Constant,
    0PerimHumidMin,                !- Name
    Any Number,              !- Schedule Type Limits Name
    20;                      !- Hourly Value

Schedule:Constant,
    0PerimHumidMax,                !- Name
    Any Number,              !- Schedule Type Limits Name
    80;                      !- Hourly Value

DesignSpecification:OutdoorAir,
  0PerimMinFreshAir,                  !- Name
  Sum,                     !- Outdoor Air Method
  0.001,                 !- Outdoor Air Flow per Person {m3/s-person}
  0.001,                   !- Outdoor Air Flow per Zone Floor Area {m3/s-m2}
    ,                        !- Outdoor Air Flow per Zone {m3/s}
    ,                        !- Outdoor Air Flow Air Changes per Hour {1/hr}
    60HrWk;!- Outdoor Air Flow Rate Fraction Schedule Name
! ------------------------ SCHEDULEDVENT
ZoneVentilation:DesignFlowRate,
0Perim ScheduledVent,  !- Name
0Perim,                               !- Zone Name
AllOn,                                       !- Natural Ventilation SCHEDULE Name
AirChanges/Hour,                                  !- Design Volume Flow Rate calculation method
,                                    !- Natural ventilation rate (m3/s)
,                                           !- Volume Flow Rate per area {m3/s/m2}
,                                           !- Volume Flow Rate per person {m3/s/person}
0,                                           !- Air Changes Per Hour
NATURAL,                                    !- Vent type - no fan energy
0,                                          !- Pressure rise (Pa)
1,                                          !- Total efficiency (0-1)
1,                                          !- Constant Term Coefficient
0,                                          !- Temperature Term Coefficient
0,                                          !- Velocity Term Coefficient
0,                                          !- Velocity Squared Term Coefficient
18,                                         !- Minimum indoor temperature (degC)
,                                           !- Minimum Indoor Temperature Schedule Name
,                                           !- Maximum Indoor Temperature {C}
,                                           !- Maximum Indoor Temperature Schedule Name
1,                                          !- Max temperature difference for operation
,                                           !- Delta Temperature Schedule Name
,                                           !- Minimum outdoor Temperature (degC)
,                                           !- Minimum outdoor Temperature Schedule Name
,                                           !- Maximum outdoor Temperature {C}
,                                           !- Maximum outdoor Temperature Schedule Name
40;                                         !- Maximum WindSpeed {m/s}
! ------------------------ NATVENT

Schedule:Constant,NATVENT_AVAIL_SCHED_0Perim,Fraction,1;
! Output:Variable,NATVENT_AVAIL_SCHED_0Perim,Schedule Value,Hourly;
! Output:Variable,AllOff,Schedule Value,Hourly;

EnergyManagementSystem:Actuator,
  NATVENT_AVAIL_SCHED_ACTUATOR_0Perim,           !- Name
  NATVENT_AVAIL_SCHED_0Perim,             !- Actuated Component Unique Name
    Schedule:Constant,       !- Actuated Component GasType
  Schedule Value;          !- Actuated Component Control GasType
 
EnergyManagementSystem:Sensor,
  USRNATVENT_0Perim,                  !- Name
  AllOff,             !- Output:Variable or Output:Meter Index Key Name
  Schedule Value;  !- Output:Variable or Output:Meter Name 

EnergyManagementSystem:ProgramCallingManager,
  My 0Perim_Setpoint_Schedule_Calculator_Example,  !- Name
  BeginTimestepBeforePredictor,  !- EnergyPlus Model Calling Point
  0Perim_ErlEnforceBinary;  !- Program Name

EnergyManagementSystem:Program,
  0Perim_ErlEnforceBinary,  !- Name
  IF (USRNATVENT_0Perim > 0),
    Set NATVENT_AVAIL_SCHED_ACTUATOR_0Perim = 1,
  ELSE,
    Set NATVENT_AVAIL_SCHED_ACTUATOR_0Perim = 0,
  ENDIF;

ZoneVentilation:WindandStackOpenArea,
0PerimNatVent_Buoy,          !- Name
0Perim,                  !- Zone Name
4.36342117647057,                       !- Opening Area {m2}
NATVENT_AVAIL_SCHED_0Perim,                !- Opening Area Fraction Schedule Name
0,                     !- Opening Effectiveness {dimensionless}
0,                     !- Effective Angle {deg}
0.23509812373225,                       !- Height Difference {m}
0.6,                       !- Discharge Coefficient for Opening
24,                    !- Minimum Indoor Temperature {C}
,                        !- Minimum Indoor Temperature Schedule Name
100,                     !- Maximum Indoor Temperature {C}
,                        !- Maximum Indoor Temperature Schedule Name
1,                    !- Delta Temperature {deltaC}
,                        !- Delta Temperature Schedule Name
22,                    !- Minimum Outdoor Temperature {C}
,                        !- Minimum Outdoor Temperature Schedule Name
26,                     !- Maximum Outdoor Temperature {C}
,                        !- Maximum Outdoor Temperature Schedule Name
40;                      !- Maximum Wind Speed {m/s}

! ------------------------ INFILTRATION
ZoneInfiltration:DesignFlowRate,
  0PerimInfiltration,  !- Name
  0Perim,            !- Zone or ZoneList Name
  On,                      !- Schedule Name
  AirChanges/Hour,               !- Design Flow Rate Calculation Method
  ,                        !- Design Flow Rate [m3/s] !-- .00756
  ,                        !- Flow per Zone Floor Area {m3/s-m2}
  ,                        !- Flow per Exterior Surface Area {m3/s-m2}
  2,                        !- Air Changes per Hour {1/hr}
  1,                       !-Constant Term Coefficient
  0,                       !-Temperature Term Coefficient
  0,                       !-Velocity Term Coefficient
  0; !-Velocity Squared Term Coefficient

! ------------------------ DHW
WaterUse:Equipment,
    DHW 0Perim,        !- Name
    DHW 0Perim,        !- End-Use Subcategory
    0,           !- Peak Flow Rate [m3/s]
    equipOffice,                    !- Flow Rate Fraction Schedule Name
    DHW Supply Temperature 0Perim,  !- Target Temperature Schedule Name
    DHW Supply Temperature 0Perim,  !- Hot Water Supply Temperature Schedule Name
    DHW Mains Temperature 0Perim,  !- Cold Water Supply Temperature Schedule Name
    ,                        !- Zone Name
    ,                        !- Sensible Fraction Schedule Name
    ;                        !- Latent Fraction Schedule Name

Schedule:Constant,
    DHW Supply Temperature 0Perim, !- Name
    Temperature, !- Schedule GasType Limits Name
    65; !- Hourly Value
Schedule:Constant,
    DHW Mains Temperature 0Perim, !- Name
    Temperature, !- Schedule GasType Limits Name
    10; !- Hourly Value
! ------------------------ GEOMETRY


 ! FACE NORMAL  0.129099817451775 0.991631603537281 0
BuildingSurface:Detailed,!-GasType
0Perim:f0, !-Name
Wall,                    !-Surface Type
U0-4,                       !-Construction Name
0Perim,            !-Zone Name
Outdoors,                !-Outside Boundary Condition
,                        !-Outside Boundary Condition Object
SunExposed,              !-Sun Exposure
WindExposed,             !-Wind Exposure
0.5,                      !-View Factor to Ground
4,                       !-Number of Vertices

-2.9878, -253.4443, 9.0905,  !- X,Y,Z ==> Vertex
2.9620, -254.2189, 9.0905,  !- X,Y,Z ==> Vertex
2.9620, -254.2189, 4.5452,  !- X,Y,Z ==> Vertex
-2.9878, -253.4443, 4.5452;  !- X,Y,Z ==> Vertex

FenestrationSurface:Detailed,
0Perim:f0:w0, !-Name
Window,                  !- Surface GasType
Double,                    !- Construction Name
0Perim:f0, !- Building Surface Name
,                        !- Outside Boundary Condition Object
Autocalculate,                      !- View Factor to Ground
,                        !- Shading Control Name
,                       !- Frame and Divider Name
1,                       !- Multiplier
4,                       !-Number of Vertices

-2.8886, -253.4572, 5.3952,  !- X,Y,Z ==> Vertex
-2.8886, -253.4572, 6.3356,  !- X,Y,Z ==> Vertex
2.8628, -254.2060, 6.3356,  !- X,Y,Z ==> Vertex
2.8628, -254.2060, 5.3952;  !- X,Y,Z ==> Vertex

 ! FACE NORMAL  -0.129099817451774 -0.991631603537281 0
BuildingSurface:Detailed,!-GasType
0Perim:f1, !-Name